* File: AE.pex.netlist.pex
* Created: Wed Dec 10 00:38:10 2014
* Program "Calibre xRC"
* Version "v2011.1_15.11"
* Nominal Temperature: 27C
* Circuit Temperature: 27C
* 
.subckt PM_AE_X_AND02A3_N$649 1 2 3
r10 2 3 41.6667
r11 1 3 41.6667
.ends

.subckt PM_AE_X_AND02A3_N$647 1 2 5 8 9 10 13 16 20 22 25 27 30 31 34 45
c85 22 0 0.271471f
c86 20 0 0.168434f
c87 16 0 0.555707f
c88 11 0 0.0234474f
c89 10 0 0.140017f
c90 8 0 0.0602767f
c91 5 0 0.0894017f
c92 1 0 0.0589224f
r93 32 34 453.125
r94 31 32 53.75
r95 30 32 53.75
r96 27 45 343.75
r97 25 27 45.8333
r98 20 23 8.21799
r99 20 22 8.21799
r100 20 38 40
r101 16 23 90
r102 13 22 28.5714
r103 9 34 0.121429
r104 9 10 0.055541
r105 7 45 0.0583115
r106 7 8 0.16
r107 6 11 0.0423445
r108 5 8 0.0558729
r109 5 6 0.17
r110 3 11 0.0110046
r111 3 10 0.51
r112 2 38 0.0583115
r113 1 11 0.0423445
r114 1 2 0.25
.ends

.subckt PM_AE_X_AND02A4_N$649 1 2 3
r11 2 3 41.6667
r12 1 3 41.6667
.ends

.subckt PM_AE_X_AND02A4_N$647 1 2 5 8 9 10 11 13 16 20 22 25 27 30 31 34 45
c84 22 0 0.271471f
c85 20 0 0.167846f
c86 16 0 0.557655f
c87 11 0 0.0246668f
c88 10 0 0.168493f
c89 8 0 0.0490186f
c90 5 0 0.0839692f
c91 1 0 0.0506647f
r92 32 34 453.125
r93 31 32 53.75
r94 30 32 53.75
r95 27 45 343.75
r96 25 27 45.8333
r97 20 23 8.21799
r98 20 22 8.21799
r99 20 38 40
r100 16 23 90
r101 13 22 28.5714
r102 9 34 0.121429
r103 9 10 0.055541
r104 7 45 0.0583115
r105 7 8 0.16
r106 6 11 0.0423445
r107 5 8 0.0558729
r108 5 6 0.17
r109 3 11 0.0110046
r110 3 10 0.51
r111 2 38 0.0583115
r112 1 11 0.0423445
r113 1 2 0.25
.ends

.subckt PM_AE_X_FULLADDER1_X_AND02A1_N$649 1 2 3
r8 2 3 41.6667
r9 1 3 41.6667
.ends

.subckt PM_AE_X_FULLADDER1_X_AND02A1_N$647 1 2 5 8 9 10 13 16 20 22 25 27 30 31
+ 34 45
c70 22 0 0.274099f
c71 20 0 0.167818f
c72 16 0 0.565838f
c73 11 0 0.0243597f
c74 10 0 0.141122f
c75 8 0 0.0627064f
c76 5 0 0.0905861f
c77 1 0 0.0596883f
r78 32 34 453.125
r79 31 32 53.75
r80 30 32 53.75
r81 27 45 343.75
r82 25 27 45.8333
r83 20 23 8.21799
r84 20 22 8.21799
r85 20 38 40
r86 16 23 90
r87 13 22 28.5714
r88 9 34 0.121429
r89 9 10 0.055541
r90 7 45 0.0583115
r91 7 8 0.16
r92 6 11 0.0423445
r93 5 8 0.0558729
r94 5 6 0.17
r95 3 11 0.0110046
r96 3 10 0.51
r97 2 38 0.0583115
r98 1 11 0.0423445
r99 1 2 0.25
.ends

.subckt PM_AE_X_FULLADDER1_X_AND02A2_N$649 1 2 3
r11 2 3 41.6667
r12 1 3 41.6667
.ends

.subckt PM_AE_X_FULLADDER1_X_AND02A2_N$647 1 2 5 8 9 10 11 13 16 20 22 25 27 30
+ 31 34 45
c84 22 0 0.274099f
c85 20 0 0.168353f
c86 16 0 0.547354f
c87 11 0 0.0223989f
c88 10 0 0.139692f
c89 8 0 0.0601019f
c90 5 0 0.0768985f
c91 1 0 0.0538314f
r92 32 34 453.125
r93 31 32 53.75
r94 30 32 53.75
r95 27 45 343.75
r96 25 27 45.8333
r97 20 23 8.21799
r98 20 22 8.21799
r99 20 38 40
r100 16 23 90
r101 13 22 28.5714
r102 9 34 0.121429
r103 9 10 0.055541
r104 7 45 0.0583115
r105 7 8 0.16
r106 6 11 0.0423445
r107 5 8 0.0558729
r108 5 6 0.17
r109 3 11 0.0110046
r110 3 10 0.51
r111 2 38 0.0583115
r112 1 11 0.0423445
r113 1 2 0.25
.ends

.subckt PM_AE_X_AXOR2A3_N$467 1 2 4 6 7 8 12 16 22 23 25 29 34 35 48 51 54
c69 48 0 0.0551229f
c70 23 0 0.176493f
c71 22 0 0.202152f
c72 16 0 0.37126f
c73 12 0 0.460639f
c74 8 0 0.937975f
c75 6 0 0.0332111f
c76 4 0 0.0356669f
c77 2 0 0.113096f
c78 1 0 0.0126173f
r79 37 51 453.125
r80 35 37 53.75
r81 34 37 53.75
r82 31 54 343.75
r83 29 31 41.6667
r84 25 48 0.0583115
r85 23 25 40
r86 23 26 8.26162
r87 19 22 8.21799
r88 19 25 40
r89 14 23 8.26162
r90 14 16 41.4286
r91 12 26 68.5714
r92 10 12 42.1429
r93 8 10 5.58729
r94 8 22 205.714
r95 7 51 0.114286
r96 6 48 0.23
r97 4 7 0.0541558
r98 3 6 0.0558729
r99 3 4 0.17
r100 2 54 0.0583115
r101 1 25 0.0578264
r102 1 2 0.24
.ends

.subckt PM_AE_X10_noxref_7 2 3 4 7 12 13 16 19 24
c33 24 0 0.055112f
c34 4 0 0.00844637f
c35 3 0 0.0470229f
c36 2 0 0.0625519f
r37 16 24 0.0583115
r38 14 16 343.75
r39 13 14 41.6667
r40 12 14 41.6667
r41 9 19 343.75
r42 7 9 41.6667
r43 5 24 0.17
r44 3 5 0.0558729
r45 3 4 0.46
r46 2 19 0.0583115
r47 1 4 0.0558729
r48 1 2 0.17
.ends

.subckt PM_AE_X_AXOR2A3_N$470 2 3 4 6 7 10 11 13 14 15 17 19 24 26 32 33 37 42
+ 51 57 60 63
c83 51 0 0.0168618f
c84 26 0 0.215582f
c85 24 0 0.51857f
c86 19 0 0.298471f
c87 17 0 0.0255353f
c88 14 0 0.0277304f
c89 13 0 0.0057331f
c90 11 0 0.144559f
c91 10 0 0.17446f
c92 7 0 0.096982f
c93 6 0 0.0278153f
c94 4 0 0.0433478f
c95 3 0 0.173358f
c96 2 0 0.189299f
r97 44 60 453.125
r98 42 44 53.75
r99 39 57 453.125
r100 37 39 53.75
r101 35 63 343.75
r102 33 35 41.6667
r103 32 35 41.6667
r104 28 51 0.0428571
r105 26 28 40
r106 26 29 8.4874
r107 22 26 8.4874
r108 22 24 77.1429
r109 19 29 32.8571
r110 15 60 0.114286
r111 13 57 0.157143
r112 12 17 0.0423445
r113 11 51 0.0222012
r114 11 12 0.23
r115 10 15 0.0583115
r116 9 17 0.0110046
r117 9 10 0.49
r118 8 14 0.0423445
r119 7 17 0.0423445
r120 7 8 0.45
r121 6 14 0.0110046
r122 5 63 0.0583115
r123 5 6 0.13
r124 3 14 0.0423445
r125 3 4 0.5
r126 2 13 0.0541558
r127 1 4 0.0558729
r128 1 2 0.44
.ends

.subckt PM_AE_X_AXOR2A3_N$468 1 2
r2 1 2 83.3333
.ends

.subckt PM_AE_X10_noxref_12 1 2
r0 1 2 107.5
.ends

.subckt PM_AE_X_AXOR2A4_N$467 1 2 4 6 7 8 12 16 22 23 25 29 34 35 48 51 54
c61 48 0 0.0551229f
c62 23 0 0.176493f
c63 22 0 0.216085f
c64 16 0 0.362533f
c65 12 0 0.460441f
c66 8 0 1.01388f
c67 6 0 0.0332111f
c68 4 0 0.0356669f
c69 2 0 0.116869f
c70 1 0 0.0197042f
r71 37 51 453.125
r72 35 37 53.75
r73 34 37 53.75
r74 31 54 343.75
r75 29 31 41.6667
r76 25 48 0.0583115
r77 23 25 40
r78 23 26 8.26162
r79 19 22 8.21799
r80 19 25 40
r81 14 23 8.26162
r82 14 16 41.4286
r83 12 26 68.5714
r84 10 12 42.1429
r85 8 10 5.58729
r86 8 22 205.714
r87 7 51 0.114286
r88 6 48 0.23
r89 4 7 0.0541558
r90 3 6 0.0558729
r91 3 4 0.17
r92 2 54 0.0583115
r93 1 25 0.0578264
r94 1 2 0.24
.ends

.subckt PM_AE_X11_noxref_7 2 3 4 7 12 13 16 19 24
c28 24 0 0.0448965f
c29 4 0 0.00844637f
c30 3 0 0.0577079f
c31 2 0 0.0605783f
r32 16 24 0.0583115
r33 14 16 343.75
r34 13 14 41.6667
r35 12 14 41.6667
r36 9 19 343.75
r37 7 9 41.6667
r38 5 24 0.17
r39 3 5 0.0558729
r40 3 4 0.46
r41 2 19 0.0583115
r42 1 4 0.0558729
r43 1 2 0.17
.ends

.subckt PM_AE_X_AXOR2A4_N$470 2 3 4 6 7 10 11 13 14 15 19 24 26 32 33 37 39 42
+ 44 51 57 60 63
c75 51 0 0.0200816f
c76 26 0 0.215582f
c77 24 0 0.52198f
c78 19 0 0.307624f
c79 17 0 0.0258383f
c80 14 0 0.0277304f
c81 13 0 0.0062698f
c82 11 0 0.16065f
c83 10 0 0.17446f
c84 7 0 0.108698f
c85 6 0 0.0272151f
c86 4 0 0.0354942f
c87 3 0 0.195095f
c88 2 0 0.148658f
r89 44 60 453.125
r90 42 44 53.75
r91 39 57 453.125
r92 37 39 53.75
r93 35 63 343.75
r94 33 35 41.6667
r95 32 35 41.6667
r96 28 51 0.0428571
r97 26 28 40
r98 26 29 8.4874
r99 22 26 8.4874
r100 22 24 77.1429
r101 19 29 32.8571
r102 15 60 0.114286
r103 13 57 0.157143
r104 12 17 0.0423445
r105 11 51 0.0222012
r106 11 12 0.23
r107 10 15 0.0583115
r108 9 17 0.0110046
r109 9 10 0.49
r110 8 14 0.0423445
r111 7 17 0.0423445
r112 7 8 0.45
r113 6 14 0.0110046
r114 5 63 0.0583115
r115 5 6 0.13
r116 3 14 0.0423445
r117 3 4 0.5
r118 2 13 0.0541558
r119 1 4 0.0558729
r120 1 2 0.44
.ends

.subckt PM_AE_X_AXOR2A4_N$468 1 2
r0 1 2 83.3333
.ends

.subckt PM_AE_X11_noxref_12 1 2
r1 1 2 107.5
.ends

.subckt PM_AE_X_FULLADDER1_X_AXOR2A2_N$467 1 2 4 6 7 8 12 16 22 23 25 29 34 35
+ 48 51 54
c67 48 0 0.0501298f
c68 23 0 0.174894f
c69 22 0 0.215644f
c70 16 0 0.375321f
c71 12 0 0.4614f
c72 8 0 0.968875f
c73 6 0 0.0332111f
c74 4 0 0.0356669f
c75 2 0 0.0926773f
c76 1 0 0.0197042f
r77 37 51 453.125
r78 35 37 53.75
r79 34 37 53.75
r80 31 54 343.75
r81 29 31 41.6667
r82 25 48 0.0583115
r83 23 25 40
r84 23 26 8.26162
r85 19 22 8.21799
r86 19 25 40
r87 14 23 8.26162
r88 14 16 41.4286
r89 12 26 68.5714
r90 10 12 42.1429
r91 8 10 5.58729
r92 8 22 205.714
r93 7 51 0.114286
r94 6 48 0.23
r95 4 7 0.0541558
r96 3 6 0.0558729
r97 3 4 0.17
r98 2 54 0.0583115
r99 1 25 0.0578264
r100 1 2 0.24
.ends

.subckt PM_AE_X12_noxref_7 2 3 4 7 12 13 16 19 24
c30 24 0 0.0543411f
c31 4 0 0.00844637f
c32 3 0 0.0469166f
c33 2 0 0.0608163f
r34 16 24 0.0583115
r35 14 16 343.75
r36 13 14 41.6667
r37 12 14 41.6667
r38 9 19 343.75
r39 7 9 41.6667
r40 5 24 0.17
r41 3 5 0.0558729
r42 3 4 0.46
r43 2 19 0.0583115
r44 1 4 0.0558729
r45 1 2 0.17
.ends

.subckt PM_AE_X_FULLADDER1_X_AXOR2A2_N$470 2 3 4 6 7 10 11 13 14 15 17 19 24 26
+ 32 33 37 39 42 44 51 57 60 63
c80 51 0 0.0169339f
c81 26 0 0.215582f
c82 24 0 0.534782f
c83 19 0 0.296633f
c84 17 0 0.0255685f
c85 14 0 0.0277304f
c86 13 0 0.00571996f
c87 11 0 0.144822f
c88 10 0 0.17446f
c89 7 0 0.0972114f
c90 6 0 0.0278153f
c91 4 0 0.0341245f
c92 3 0 0.173786f
c93 2 0 0.173839f
r94 44 60 453.125
r95 42 44 53.75
r96 39 57 453.125
r97 37 39 53.75
r98 35 63 343.75
r99 33 35 41.6667
r100 32 35 41.6667
r101 28 51 0.0428571
r102 26 28 40
r103 26 29 8.4874
r104 22 26 8.4874
r105 22 24 77.1429
r106 19 29 32.8571
r107 15 60 0.114286
r108 13 57 0.157143
r109 12 17 0.0423445
r110 11 51 0.0222012
r111 11 12 0.23
r112 10 15 0.0583115
r113 9 17 0.0110046
r114 9 10 0.49
r115 8 14 0.0423445
r116 7 17 0.0423445
r117 7 8 0.45
r118 6 14 0.0110046
r119 5 63 0.0583115
r120 5 6 0.13
r121 3 14 0.0423445
r122 3 4 0.5
r123 2 13 0.0541558
r124 1 4 0.0558729
r125 1 2 0.44
.ends

.subckt PM_AE_X_FULLADDER1_X_AXOR2A2_N$468 1 2
r2 1 2 83.3333
.ends

.subckt PM_AE_X12_noxref_12 1 2
r2 1 2 107.5
.ends

.subckt PM_AE_X_FULLADDER1_X_AXOR2A1_N$467 1 2 4 6 7 8 12 16 22 23 25 29 34 35
+ 48 51 54
c78 48 0 0.0487188f
c79 23 0 0.176493f
c80 22 0 0.214187f
c81 16 0 0.370784f
c82 12 0 0.454831f
c83 8 0 0.958475f
c84 6 0 0.0329695f
c85 4 0 0.0345003f
c86 2 0 0.109696f
c87 1 0 0.0197042f
r88 37 51 453.125
r89 35 37 53.75
r90 34 37 53.75
r91 31 54 343.75
r92 29 31 41.6667
r93 25 48 0.0583115
r94 23 25 40
r95 23 26 8.26162
r96 19 22 8.21799
r97 19 25 40
r98 14 23 8.26162
r99 14 16 41.4286
r100 12 26 68.5714
r101 10 12 42.1429
r102 8 10 5.58729
r103 8 22 205.714
r104 7 51 0.114286
r105 6 48 0.23
r106 4 7 0.0541558
r107 3 6 0.0558729
r108 3 4 0.17
r109 2 54 0.0583115
r110 1 25 0.0578264
r111 1 2 0.24
.ends

.subckt PM_AE_X13_noxref_7 2 3 4 7 12 13 16 19 24
c35 24 0 0.0543411f
c36 4 0 0.00844637f
c37 3 0 0.0469166f
c38 2 0 0.0608163f
r39 16 24 0.0583115
r40 14 16 343.75
r41 13 14 41.6667
r42 12 14 41.6667
r43 9 19 343.75
r44 7 9 41.6667
r45 5 24 0.17
r46 3 5 0.0558729
r47 3 4 0.46
r48 2 19 0.0583115
r49 1 4 0.0558729
r50 1 2 0.17
.ends

.subckt PM_AE_X_FULLADDER1_X_AXOR2A1_N$470 2 3 4 6 7 10 11 13 14 15 17 19 24 26
+ 32 33 37 42 44 51 57 60 63
c103 51 0 0.0142223f
c104 26 0 0.212651f
c105 24 0 0.538081f
c106 19 0 0.294132f
c107 17 0 0.024073f
c108 14 0 0.0277304f
c109 13 0 0.0057044f
c110 11 0 0.160574f
c111 10 0 0.201988f
c112 7 0 0.0956465f
c113 6 0 0.0428833f
c114 4 0 0.0342642f
c115 3 0 0.167169f
c116 2 0 0.175802f
r117 44 60 453.125
r118 42 44 53.75
r119 39 57 453.125
r120 37 39 53.75
r121 35 63 343.75
r122 33 35 41.6667
r123 32 35 41.6667
r124 28 51 0.0428571
r125 26 28 40
r126 26 29 8.4874
r127 22 26 8.4874
r128 22 24 77.1429
r129 19 29 32.8571
r130 15 60 0.114286
r131 13 57 0.157143
r132 12 17 0.0423445
r133 11 51 0.0222012
r134 11 12 0.23
r135 10 15 0.0583115
r136 9 17 0.0110046
r137 9 10 0.49
r138 8 14 0.0423445
r139 7 17 0.0423445
r140 7 8 0.45
r141 6 14 0.0110046
r142 5 63 0.0583115
r143 5 6 0.13
r144 3 14 0.0423445
r145 3 4 0.5
r146 2 13 0.0541558
r147 1 4 0.0558729
r148 1 2 0.44
.ends

.subckt PM_AE_X_FULLADDER1_X_AXOR2A1_N$468 1 2
r2 1 2 83.3333
.ends

.subckt PM_AE_X13_noxref_12 1 2
r4 1 2 107.5
.ends

.subckt PM_AE_C 4 5 7 12 20 23 27 30 32 37 41
c44 41 0 0.232701f
c45 37 0 0.0460015f
c46 32 0 0.0848652f
c47 30 0 0.532195f
c48 27 0 0.144648f
c49 23 0 0.185757f
c50 21 0 0.060038f
c51 5 0 0.0344652f
c52 4 0 0.0408036f
r53 35 37 0.05
r54 27 42 0.0695997
r55 27 41 0.0695997
r56 25 27 16.8
r57 21 30 0.07
r58 21 23 0.095
r59 20 25 0.0564744
r60 20 30 1.29667
r61 14 32 453.125
r62 12 14 53.75
r63 9 37 343.75
r64 7 9 41.6667
r65 5 32 0.0763158
r66 4 5 0.0723252
r67 4 42 0.09
r68 1 35 0.0222012
r69 1 41 0.49
.ends

.subckt PM_AE_X_FULLADDER1_N$18 2 4 5 7 12 20 21 26 32 37 39 41 46 47 49 50 51
+ 53 55 60 62
c108 62 0 0.0539072f
c109 55 0 0.0829223f
c110 53 0 0.0229677f
c111 51 0 0.015266f
c112 50 0 0.107603f
c113 49 0 5.76118e-19
c114 46 0 0.0638535f
c115 41 0 0.058996f
c116 39 0 0.177682f
c117 37 0 0.509111f
c118 32 0 0.316092f
c119 26 0 0.0488246f
c120 21 0 0.0862038f
c121 20 0 0.163464f
c122 5 0 0.0378692f
c123 4 0 0.187869f
c124 2 0 0.119148f
r125 60 62 0.0564744
r126 60 64 16.8
r127 55 62 0.265833
r128 53 55 0.0558729
r129 52 53 0.06
r130 50 52 0.0558729
r131 50 51 0.564167
r132 48 51 0.0558729
r133 48 49 0.0816667
r134 47 56 0.0564744
r135 46 49 0.0558729
r136 46 47 0.2875
r137 41 64 0.105634
r138 39 41 40
r139 39 42 8.32385
r140 35 39 8.32385
r141 35 37 77.1429
r142 32 42 41.4286
r143 24 26 0.0571429
r144 20 56 16.8
r145 14 21 453.125
r146 12 14 53.75
r147 9 26 343.75
r148 7 9 41.6667
r149 5 21 0.07
r150 4 5 0.0749833
r151 3 20 0.0695997
r152 3 4 0.36
r153 2 20 0.0695997
r154 1 24 0.0222012
r155 1 2 0.23
.ends

.subckt PM_AE_X_FULLADDER1_N$21 2 4 5 7 12 20 21 26 32 37 39 42 46 47 48 50 51
+ 55
c113 55 0 0.0386899f
c114 50 0 0.124442f
c115 48 0 0.0273666f
c116 47 0 0.428955f
c117 46 0 0.0742178f
c118 42 0 0.106646f
c119 39 0 0.282568f
c120 37 0 0.518786f
c121 32 0 0.346765f
c122 26 0 0.040194f
c123 21 0 0.0696197f
c124 20 0 0.14215f
c125 5 0 0.0269966f
c126 4 0 0.157262f
c127 2 0 0.100996f
r128 55 57 0.0296774
r129 55 61 16.8
r130 50 57 0.0183485
r131 49 50 0.261667
r132 47 49 0.0558729
r133 47 48 3.24917
r134 46 51 0.0564744
r135 45 48 0.0558729
r136 45 46 0.253333
r137 42 61 0.0660264
r138 40 42 40
r139 39 40 7.36434
r140 35 39 3.53788
r141 35 37 72.8571
r142 31 39 3.53788
r143 31 32 45.7143
r144 24 26 0.0571429
r145 20 51 16.8
r146 14 21 453.125
r147 12 14 53.75
r148 9 26 343.75
r149 7 9 41.6667
r150 5 21 0.07
r151 4 5 0.0749833
r152 3 20 0.0695997
r153 3 4 0.36
r154 2 20 0.0695997
r155 1 24 0.0222012
r156 1 2 0.23
.ends

.subckt PM_AE_EA 2 6 9 12 17 18 25 27 29
c56 25 0 0.314125f
c57 18 0 0.00192898f
c58 17 0 0.0496574f
c59 12 0 0.332701f
c60 9 0 0.182047f
c61 2 0 0.465006f
r62 25 29 0.0564744
r63 25 27 0.6275
r64 17 18 0.0642857
r65 16 17 0.0552052
r66 16 29 16.8
r67 9 12 8.32385
r68 9 11 8.32385
r69 9 18 40
r70 6 12 35.7143
r71 2 11 82.8571
.ends

.subckt PM_AE_A 2 6 12 19 24 26 29 30
c52 29 0 0.108715f
c53 24 0 0.249942f
c54 19 0 0.138132f
c55 12 0 0.235406f
c56 6 0 0.436626f
c57 2 0 0.418343f
r58 28 30 0.0564744
r59 28 29 0.245
r60 24 29 0.0558729
r61 24 26 1.26167
r62 18 19 0.0533175
r63 18 30 16.8
r64 12 19 40
r65 9 12 7.1875
r66 5 9 4.59228
r67 5 6 55.7143
r68 1 9 4.59228
r69 1 2 62.8571
.ends

.subckt PM_AE_WA 2 7 9 10 12 15 18 25 32 34 37 38
c82 37 0 0.0581911f
c83 32 0 0.579095f
c84 25 0 0.105472f
c85 18 0 0.205484f
c86 12 0 0.90008f
c87 10 0 0.0456268f
c88 9 0 0.728367f
c89 7 0 0.49621f
c90 2 0 0.362983f
r91 36 38 0.0564744
r92 36 37 0.456667
r93 32 37 0.0558729
r94 32 34 1.82
r95 25 38 16.8
r96 18 21 8.4874
r97 18 20 8.4874
r98 18 25 40
r99 12 15 132.857
r100 11 15 54.2857
r101 9 11 5.58729
r102 9 10 151.429
r103 7 21 58.5714
r104 6 10 5.58729
r105 6 7 52.8571
r106 2 20 50
.ends

.subckt PM_AE_N$30 2 4 5 7 12 20 21 26 31 35 41 46 48 51 52 53 57 66 67 69 70
+ 71 73 75 80
c134 80 0 0.0550679f
c135 75 0 0.0113f
c136 73 0 0.0109981f
c137 71 0 0.0132343f
c138 70 0 0.336429f
c139 69 0 0.00100179f
c140 66 0 0.0286063f
c141 53 0 0.23217f
c142 52 0 0.215894f
c143 51 0 0.040226f
c144 48 0 0.0288637f
c145 46 0 0.354618f
c146 41 0 0.430927f
c147 35 0 0.43518f
c148 31 0 0.410606f
c149 26 0 0.0520461f
c150 21 0 0.0752841f
c151 20 0 0.166288f
c152 5 0 0.0303524f
c153 4 0 0.17635f
c154 2 0 0.119003f
r155 75 80 0.219167
r156 73 75 0.0558729
r157 72 73 0.286667
r158 70 72 0.0558729
r159 70 71 1.27083
r160 68 71 0.0558729
r161 68 69 0.0975
r162 67 76 0.0564744
r163 66 69 0.0558729
r164 66 67 0.235833
r165 57 80 0.0564744
r166 51 57 16.8
r167 49 51 40
r168 49 53 5.67568
r169 49 52 8.36051
r170 44 53 5.32009
r171 44 46 40
r172 41 53 66.4286
r173 39 48 1.10046
r174 39 52 52.8571
r175 34 48 4.23445
r176 34 35 57.8571
r177 30 48 4.23445
r178 30 31 63.5714
r179 24 26 0.0571429
r180 20 76 16.8
r181 14 21 453.125
r182 12 14 53.75
r183 9 26 343.75
r184 7 9 41.6667
r185 5 21 0.07
r186 4 5 0.0749833
r187 3 20 0.0695997
r188 3 4 0.36
r189 2 20 0.0695997
r190 1 24 0.0222012
r191 1 2 0.23
.ends

.subckt PM_AE_EB 2 6 9 12 17 18 25 27 29 30 32
c141 32 0 0.00777039f
c142 29 0 0.00336894f
c143 25 0 0.883028f
c144 18 0 0.00200236f
c145 17 0 0.0559938f
c146 12 0 0.332731f
c147 9 0 0.176736f
c148 2 0 0.461455f
r149 31 32 0.515833
r150 30 33 0.0564744
r151 29 32 0.0558729
r152 29 30 0.124167
r153 25 31 0.0558729
r154 25 27 4.59917
r155 17 18 0.0642857
r156 16 17 0.0552052
r157 16 33 16.8
r158 9 12 8.32385
r159 9 11 8.32385
r160 9 18 40
r161 6 12 35.7143
r162 2 11 82.8571
.ends

.subckt PM_AE_B 2 6 12 19 24 26 28 31 33 34
c70 33 0 0.0126825f
c71 31 0 0.236354f
c72 28 0 0.794903f
c73 24 0 0.195647f
c74 19 0 0.140525f
c75 12 0 0.235369f
c76 6 0 0.448473f
c77 2 0 0.413652f
r78 31 34 0.0564744
r79 30 31 0.568333
r80 28 30 0.0558729
r81 28 33 4.42583
r82 24 33 0.0441667
r83 24 26 0.459167
r84 18 19 0.0533175
r85 18 34 16.8
r86 12 19 40
r87 9 12 7.1875
r88 5 9 4.59228
r89 5 6 55.7143
r90 1 9 4.59228
r91 1 2 62.8571
.ends

.subckt PM_AE_N$31 2 4 5 7 12 20 21 26 31 36 38 39 41 45 46 48 53 63 65 66 67
+ 69 70
c108 69 0 0.0581911f
c109 67 0 0.029676f
c110 66 0 0.242421f
c111 65 0 0.0450347f
c112 64 0 0.0447401f
c113 63 0 0.095317f
c114 48 0 0.109216f
c115 46 0 0.205484f
c116 41 0 0.900168f
c117 39 0 0.0456268f
c118 38 0 0.706687f
c119 36 0 0.487086f
c120 31 0 0.372563f
c121 26 0 0.0520461f
c122 21 0 0.0767607f
c123 20 0 0.141997f
c124 5 0 0.0267282f
c125 4 0 0.159508f
c126 2 0 0.119348f
r127 69 75 0.2225
r128 66 69 0.0558729
r129 66 67 1.47417
r130 64 70 0.0564744
r131 64 65 0.1025
r132 63 67 0.0558729
r133 62 65 0.0558729
r134 62 63 0.341667
r135 53 75 0.0564744
r136 48 53 16.8
r137 46 48 40
r138 46 49 8.4874
r139 41 45 132.857
r140 40 45 54.2857
r141 38 40 5.58729
r142 38 39 151.429
r143 35 39 5.58729
r144 35 36 52.8571
r145 34 46 8.4874
r146 34 36 58.5714
r147 31 49 50
r148 24 26 0.0571429
r149 20 70 16.8
r150 14 21 453.125
r151 12 14 53.75
r152 9 26 343.75
r153 7 9 41.6667
r154 5 21 0.07
r155 4 5 0.0749833
r156 3 20 0.0695997
r157 3 4 0.36
r158 2 20 0.0695997
r159 1 24 0.0222012
r160 1 2 0.23
.ends

.subckt PM_AE_WB 2 6 12 16 19 23 24 29 36 38 40 43 45 46
c86 45 0 0.0226559f
c87 43 0 0.180964f
c88 40 0 1.89069f
c89 36 0 0.283756f
c90 29 0 0.040361f
c91 24 0 0.233621f
c92 23 0 0.227792f
c93 19 0 0.0288637f
c94 16 0 0.354627f
c95 12 0 0.417138f
c96 6 0 0.424382f
c97 2 0 0.414371f
r98 43 46 0.0564744
r99 42 43 0.865
r100 40 42 0.0558729
r101 40 45 5.68667
r102 36 45 0.0633333
r103 36 38 0.459167
r104 29 46 16.8
r105 21 24 5.67568
r106 21 23 8.36051
r107 21 29 40
r108 15 24 5.32009
r109 15 16 40
r110 12 24 66.4286
r111 10 19 1.10046
r112 10 23 52.8571
r113 5 19 4.23445
r114 5 6 57.8571
r115 1 19 4.23445
r116 1 2 63.5714
.ends

.subckt PM_AE_N$40 2 6 9 12 17 18 27 28 30 35 37 43 44 47 52 55 60 62 63 65 69
+ 70 72 90 93 94 96 97 98 100 101 102 104 105 106 107 110
c192 106 0 0.0167776f
c193 105 0 0.0249658f
c194 104 0 0.0225782f
c195 101 0 0.150728f
c196 100 0 0.104781f
c197 98 0 0.0542905f
c198 97 0 1.31599f
c199 96 0 0.174646f
c200 94 0 0.092001f
c201 93 0 0.295425f
c202 92 0 0.0999757f
c203 90 0 0.00752731f
c204 89 0 0.772895f
c205 88 0 0.0680254f
c206 72 0 0.0887593f
c207 70 0 0.205484f
c208 65 0 0.890906f
c209 63 0 0.0465634f
c210 62 0 0.715033f
c211 60 0 0.49159f
c212 55 0 0.358997f
c213 52 0 0.147903f
c214 43 0 0.188435f
c215 27 0 0.0435009f
c216 18 0 0.00205975f
c217 17 0 0.05453f
c218 12 0 0.339962f
c219 9 0 0.182223f
c220 2 0 0.477568f
r221 105 110 0.0564744
r222 105 106 0.1125
r223 103 106 0.0558729
r224 103 104 0.065
r225 101 104 0.0558729
r226 101 102 0.566667
r227 100 102 0.0558729
r228 99 100 1.01417
r229 97 99 0.0558729
r230 97 98 4.05417
r231 95 98 0.0558729
r232 95 96 0.705
r233 93 94 0.536667
r234 92 94 0.0558729
r235 91 92 0.118333
r236 89 91 0.0558729
r237 89 90 0.854167
r238 88 107 0.0564744
r239 87 90 0.0558729
r240 87 88 0.203333
r241 77 96 0.0298527
r242 77 93 0.0260202
r243 72 77 16.8
r244 70 72 40
r245 70 73 8.4874
r246 65 69 132.857
r247 64 69 54.2857
r248 62 64 5.58729
r249 62 63 151.429
r250 59 63 5.58729
r251 59 60 52.8571
r252 58 70 8.4874
r253 58 60 58.5714
r254 55 73 50
r255 43 53 0.0699833
r256 43 52 0.0699833
r257 43 107 16.8
r258 37 44 453.125
r259 35 37 53.75
r260 32 47 343.75
r261 30 32 41.6667
r262 28 44 0.114286
r263 27 28 0.055541
r264 27 53 0.14
r265 24 47 0.0583115
r266 24 52 0.4
r267 17 18 0.0642857
r268 16 17 0.0552052
r269 16 110 16.8
r270 9 12 8.32385
r271 9 11 8.32385
r272 9 18 40
r273 6 12 35.7143
r274 2 11 82.8571
.ends

.subckt PM_AE_N$38 2 6 12 19 26 27 29 31 34 42 43 46 51 54 58 64 69 71 74 75 76
+ 80 91 92 93 95 97 98 99 101 103 104 105 109 110 111 113 114 117 119 121 123
c302 121 0 0.0373584f
c303 119 0 0.0351893f
c304 117 0 0.299196f
c305 113 0 0.150518f
c306 110 0 0.196127f
c307 109 0 0.043837f
c308 105 0 0.0225108f
c309 104 0 0.592354f
c310 103 0 0.0280958f
c311 101 0 0.0150477f
c312 99 0 0.0503385f
c313 98 0 0.260039f
c314 97 0 0.0710121f
c315 95 0 0.115937f
c316 93 0 0.0251978f
c317 92 0 0.8942f
c318 91 0 0.0682904f
c319 76 0 0.23217f
c320 75 0 0.217281f
c321 74 0 0.0369477f
c322 71 0 0.025988f
c323 69 0 0.354793f
c324 64 0 0.428416f
c325 58 0 0.425527f
c326 54 0 0.393551f
c327 51 0 0.171306f
c328 42 0 0.16847f
c329 26 0 0.0358831f
c330 19 0 0.140358f
c331 12 0 0.237089f
c332 6 0 0.436308f
c333 2 0 0.421182f
r334 112 123 0.0564744
r335 112 113 0.368333
r336 110 113 0.0558729
r337 110 111 1.7025
r338 109 111 0.0558729
r339 108 109 0.886667
r340 107 119 0.0110046
r341 107 121 0.32
r342 104 108 0.0558729
r343 104 105 3.425
r344 103 119 0.0423445
r345 102 105 0.0558729
r346 102 103 0.5025
r347 100 119 0.0423445
r348 100 101 0.0675
r349 99 117 0.12
r350 98 101 0.0558729
r351 98 99 0.856667
r352 97 117 0.4325
r353 94 97 0.0558729
r354 94 95 0.199167
r355 92 95 0.0558729
r356 92 93 3.97833
r357 91 93 0.0558729
r358 90 114 0.0564744
r359 90 91 0.351667
r360 80 121 0.0564744
r361 74 80 16.8
r362 72 74 40
r363 72 76 5.67568
r364 72 75 8.36051
r365 67 76 5.32009
r366 67 69 40
r367 64 76 66.4286
r368 62 71 1.10046
r369 62 75 52.8571
r370 57 71 4.23445
r371 57 58 57.8571
r372 53 71 4.23445
r373 53 54 63.5714
r374 42 52 0.0699833
r375 42 51 0.0699833
r376 42 114 16.8
r377 36 43 453.125
r378 34 36 53.75
r379 31 46 343.75
r380 29 31 41.6667
r381 27 43 0.114286
r382 26 27 0.055541
r383 26 52 0.14
r384 23 46 0.0583115
r385 23 51 0.4
r386 18 19 0.0533175
r387 18 123 16.8
r388 12 19 40
r389 9 12 7.1875
r390 5 9 4.59228
r391 5 6 55.7143
r392 1 9 4.59228
r393 1 2 62.8571
.ends

.subckt PM_AE_X_FULLADDER1_N$29 2 6 9 12 17 18 27 28 30 32 35 37 43 44 47 52 55
+ 60 62 63 65 69 70 72 87 88 89 92 93 94 96 97 98 100 108
c190 104 0 0.121548f
c191 100 0 0.012491f
c192 98 0 0.0120805f
c193 97 0 0.717754f
c194 96 0 0.0850091f
c195 94 0 0.0175637f
c196 93 0 0.132266f
c197 92 0 0.0741629f
c198 89 0 0.14614f
c199 87 0 0.052967f
c200 72 0 0.0909913f
c201 70 0 0.205484f
c202 65 0 0.84336f
c203 63 0 0.0465634f
c204 62 0 0.722153f
c205 60 0 0.489946f
c206 55 0 0.351405f
c207 52 0 0.182782f
c208 43 0 0.168891f
c209 27 0 0.0455735f
c210 18 0 0.00199986f
c211 17 0 0.0547395f
c212 12 0 0.347927f
c213 9 0 0.183895f
c214 2 0 0.462349f
r215 104 106 0.0933333
r216 99 108 0.0564744
r217 99 100 0.4725
r218 97 100 0.0558729
r219 97 98 2.67333
r220 96 98 0.0558729
r221 95 96 0.875833
r222 93 95 0.0558729
r223 93 94 0.950833
r224 91 94 0.0558729
r225 91 92 0.145
r226 90 104 0.00587288
r227 89 90 0.206667
r228 88 101 0.0564744
r229 87 106 0.00587288
r230 87 88 0.105
r231 77 92 0.0306867
r232 77 89 0.0251862
r233 72 77 16.8
r234 70 72 40
r235 70 73 8.4874
r236 65 69 132.857
r237 64 69 54.2857
r238 62 64 5.58729
r239 62 63 151.429
r240 59 63 5.58729
r241 59 60 52.8571
r242 58 70 8.4874
r243 58 60 58.5714
r244 55 73 50
r245 43 53 0.0699833
r246 43 52 0.0699833
r247 43 101 16.8
r248 37 44 453.125
r249 35 37 53.75
r250 32 47 343.75
r251 30 32 41.6667
r252 28 44 0.114286
r253 27 28 0.055541
r254 27 53 0.14
r255 24 47 0.0583115
r256 24 52 0.4
r257 17 18 0.0642857
r258 16 17 0.0552052
r259 16 108 16.8
r260 9 12 8.32385
r261 9 11 8.32385
r262 9 18 40
r263 6 12 35.7143
r264 2 11 82.8571
.ends

.subckt PM_AE_CIN 2 6 12 19 24 28 34 38 41 45 46 51 59 61 63 66 67 68 70 72 73
+ 74 75 76 78 80 81 82 85
c250 81 0 1.11633e-19
c251 80 0 0.0223395f
c252 78 0 0.277598f
c253 76 0 0.0307803f
c254 75 0 0.0654697f
c255 74 0 0.0403997f
c256 73 0 1.35482f
c257 72 0 0.0158979f
c258 70 0 0.073847f
c259 68 0 0.0365445f
c260 67 0 0.874766f
c261 66 0 0.230691f
c262 63 0 2.61467f
c263 59 0 0.322015f
c264 51 0 0.039835f
c265 46 0 0.23217f
c266 45 0 0.213595f
c267 41 0 0.0281331f
c268 38 0 0.354618f
c269 34 0 0.417823f
c270 28 0 0.410717f
c271 24 0 0.401453f
c272 19 0 0.133332f
c273 12 0 0.237089f
c274 6 0 0.436707f
c275 2 0 0.421003f
r276 77 85 0.0564744
r277 77 78 0.810833
r278 75 82 0.0564744
r279 75 76 0.309167
r280 73 78 0.0558729
r281 73 74 4.02833
r282 72 81 0.0423445
r283 71 76 0.0558729
r284 71 72 0.286667
r285 70 74 0.0558729
r286 69 81 0.0423445
r287 69 70 0.335
r288 67 81 0.0110046
r289 67 68 3.64417
r290 65 68 0.0558729
r291 65 66 0.2925
r292 63 66 0.0558729
r293 63 80 7.4975
r294 59 80 0.0633333
r295 59 61 0.455
r296 51 82 16.8
r297 43 46 5.67568
r298 43 45 8.36051
r299 43 51 40
r300 37 46 5.32009
r301 37 38 40
r302 34 46 66.4286
r303 32 41 1.10046
r304 32 45 52.8571
r305 27 41 4.23445
r306 27 28 57.8571
r307 23 41 4.23445
r308 23 24 63.5714
r309 18 19 0.0533175
r310 18 85 16.8
r311 12 19 40
r312 9 12 7.1875
r313 5 9 4.59228
r314 5 6 55.7143
r315 1 9 4.59228
r316 1 2 62.8571
.ends

.subckt PM_AE_AE 4 5 7 12 14 20 21 24 29 33 35 36 38 39 42
c66 42 0 1.67281f
c67 36 0 0.232119f
c68 35 0 0.0318129f
c69 33 0 0.252444f
c70 29 0 0.145915f
c71 20 0 0.166148f
c72 4 0 0.0449457f
r73 36 42 0.0516667
r74 36 38 0.0858333
r75 35 42 4.245
r76 33 39 0.0564744
r77 32 35 0.0558729
r78 32 33 0.796667
r79 20 30 0.0699833
r80 20 29 0.0699833
r81 20 39 16.8
r82 14 21 453.125
r83 12 14 53.75
r84 9 24 343.75
r85 7 9 41.6667
r86 5 21 0.114286
r87 4 5 0.055541
r88 4 30 0.14
r89 1 24 0.0583115
r90 1 29 0.4
.ends

.subckt PM_AE_VDD 3 4 7 12 32 33 37 39 50 52 64 65 68 73 93 94 98 100 111 113
+ 125 126 129 134 154 155 159 161 172 174 186 187 190 195 215 216 220 222 233 235
+ 247 251 252 255 256 259 260 262 265 268 313 318 323 324 328 351 353 356 358 361
+ 383 387 388 391 392 395 396 398 401 404 444 449 454 459 460 464 487 489 492 494
+ 497 519 523 524 527 528 531 532 534 537 585 590 595 596 600 623 625 628 630 655
+ 659 660 663 664 667 668 670 673 676 721 726 731 732 736 759 761 764 766 857 858
+ 860 863 864 866 869 872 873 875 876 879 890 891 893 903 904 913 936 937 948
c427 932 0 1.76185f
c428 914 0 0.0942601f
c429 913 0 1.08928f
c430 904 0 0.394699f
c431 891 0 0.74559f
c432 890 0 1.39193f
c433 880 0 0.491334f
c434 879 0 0.373537f
c435 876 0 0.258354f
c436 875 0 0.998894f
c437 873 0 0.274545f
c438 872 0 1.20663f
c439 869 0 0.270725f
c440 866 0 0.263209f
c441 864 0 0.302551f
c442 863 0 1.21f
c443 860 0 0.262859f
c444 858 0 0.302201f
c445 857 0 0.764622f
c446 769 0 0.843282f
c447 766 0 0.0289655f
c448 759 0 0.016964f
c449 677 0 0.0942601f
c450 676 0 0.503479f
c451 674 0 0.08592f
c452 673 0 0.428282f
c453 671 0 0.0921751f
c454 670 0 1.09877f
c455 668 0 0.358385f
c456 664 0 0.328436f
c457 660 0 0.276831f
c458 630 0 0.0289763f
c459 623 0 0.0158002f
c460 541 0 0.0942601f
c461 540 0 0.551859f
c462 538 0 0.08592f
c463 537 0 0.434518f
c464 535 0 0.0921751f
c465 534 0 0.780939f
c466 532 0 0.416673f
c467 528 0 0.361551f
c468 524 0 0.330269f
c469 497 0 0.10368f
c470 494 0 0.0289763f
c471 487 0 0.020817f
c472 404 0 0.50476f
c473 402 0 0.08592f
c474 401 0 0.429639f
c475 399 0 0.0921751f
c476 398 0 1.3309f
c477 396 0 0.386472f
c478 392 0 0.34276f
c479 388 0 0.300068f
c480 361 0 0.10368f
c481 358 0 0.0289763f
c482 351 0 0.0207574f
c483 269 0 0.0942601f
c484 268 0 0.50476f
c485 266 0 0.08592f
c486 265 0 0.429639f
c487 263 0 0.0921751f
c488 262 0 1.3309f
c489 260 0 0.387305f
c490 256 0 0.332407f
c491 252 0 0.301125f
c492 195 0 0.55596f
c493 194 0 0.0869625f
c494 187 0 0.356624f
c495 134 0 0.556656f
c496 133 0 0.0869625f
c497 126 0 0.33641f
c498 73 0 0.765555f
c499 72 0 0.0869625f
c500 65 0 0.375908f
c501 12 0 0.765555f
c502 11 0 0.0869625f
c503 4 0 0.379194f
r504 939 948 453.125
r505 937 939 53.75
r506 936 939 53.75
r507 926 932 0.09
r508 920 950 0.18025
r509 913 920 0.0475
r510 913 914 0.0120039
r511 912 926 0.0175
r512 912 914 0.0120039
r513 909 911 0.01
r514 904 914 0.0539771
r515 903 948 0.0583115
r516 903 904 0.59
r517 891 907 0.108137
r518 891 893 0.0811847
r519 890 909 0.0931365
r520 890 893 0.37561
r521 887 888 0.17275
r522 882 883 0.17275
r523 880 911 0.0025
r524 879 909 0.0748438
r525 878 907 0.0375
r526 876 950 0.0748438
r527 873 899 0.0748438
r528 869 895 0.0748438
r529 866 888 0.0748438
r530 864 887 0.0748438
r531 860 883 0.0748438
r532 858 882 0.0748438
r533 738 766 453.125
r534 736 738 53.75
r535 734 764 453.125
r536 732 734 53.75
r537 731 734 53.75
r538 728 761 453.125
r539 726 728 53.75
r540 723 759 453.125
r541 721 723 53.75
r542 717 871 0.0375
r543 705 711 0.09
r544 687 693 0.09
r545 687 769 0.0875
r546 681 769 0.0025
r547 681 895 0.01
r548 677 871 0.0120039
r549 676 711 0.0275
r550 676 677 0.0120039
r551 673 699 0.0575
r552 673 674 0.0120039
r553 672 705 0.0075
r554 672 674 0.0120039
r555 670 693 0.015
r556 670 671 0.0120039
r557 669 699 0.05
r558 669 671 0.0120039
r559 668 677 0.0539771
r560 667 766 0.0583115
r561 667 668 0.59
r562 664 674 0.0539771
r563 663 764 0.0583115
r564 663 664 0.59
r565 660 671 0.0539771
r566 659 761 0.0583115
r567 659 660 0.59
r568 655 759 0.0583115
r569 655 869 0.58
r570 602 630 453.125
r571 600 602 53.75
r572 598 628 453.125
r573 596 598 53.75
r574 595 598 53.75
r575 592 625 453.125
r576 590 592 53.75
r577 587 623 453.125
r578 585 587 53.75
r579 581 895 0.185
r580 581 868 0.0375
r581 569 575 0.09
r582 551 557 0.09
r583 551 880 0.0875