* File: ALU.pex.netlist.pex
* Created: Tue Dec 16 23:10:00 2014
* Program "Calibre xRC"
* Version "v2011.1_15.11"
* Nominal Temperature: 27C
* Circuit Temperature: 27C
* 
.subckt PM_ALU_X_LE1_X_MUX21A_NI1_N$223 2 4 7 9 11 14 18 20 22 27 29 32 34 42
+ 45 48
c90 48 0 0.0709217f
c91 45 0 0.0498921f
c92 42 0 0.259524f
c93 20 0 0.227888f
c94 18 0 0.423879f
c95 14 0 0.111602f
c96 11 0 0.384214f
c97 9 0 0.0249185f
c98 7 0 0.0225178f
c99 4 0 0.12637f
c100 2 0 0.127613f
r101 34 45 453.125
r102 32 34 53.75
r103 29 48 343.75
r104 27 29 41.6667
r105 22 42 0.0583115
r106 20 22 40
r107 20 24 6.9375
r108 20 23 8.21799
r109 16 18 58.1429
r110 15 24 4.59228
r111 14 16 5.58729
r112 14 15 15.7143
r113 11 23 60.1429
r114 7 45 0.09375
r115 6 9 0.0110046
r116 6 42 0.596
r117 4 7 0.0577699
r118 3 9 0.0423445
r119 3 4 0.283
r120 2 9 0.0423445
r121 1 48 0.120236
r122 1 2 0.351
.ends

.subckt PM_ALU_X_LE1_X_MUX21A_NI1_N$461 2 4 5 6 7 8 10 11 13 17 22 26 28 31 32
+ 36 37 47 50
c80 50 0 0.0376152f
c81 47 0 0.0320512f
c82 28 0 0.230047f
c83 22 0 0.362911f
c84 17 0 0.524107f
c85 15 0 0.0469f
c86 13 0 0.00541126f
c87 11 0 0.189841f
c88 10 0 0.0965928f
c89 8 0 0.0383291f
c90 7 0 0.0456093f
c91 6 0 0.0305152f
c92 5 0 0.132783f
c93 4 0 0.031648f
c94 2 0 0.0413948f
r95 39 47 453.125
r96 37 39 54.2875
r97 36 39 54.825
r98 34 50 343.75
r99 32 34 41.6667
r100 31 34 41.6667
r101 24 26 40
r102 24 28 6
r103 20 28 4.59228
r104 20 22 41.4286
r105 16 28 4.59228
r106 16 17 86.2857
r107 13 47 0.094375
r108 12 15 0.0423445
r109 11 26 0.0579937
r110 11 12 0.461
r111 10 15 0.0110046
r112 9 10 0.327
r113 7 15 0.0423445
r114 7 8 0.179
r115 5 9 0.0558729
r116 5 6 0.193
r117 4 13 0.0587411
r118 3 8 0.0558729
r119 3 4 0.092
r120 2 6 0.0558729
r121 1 50 0.114044
r122 1 2 0.115
.ends

.subckt PM_ALU_X_LE1_X_MUX21A_NI1_N$464 1 2
r3 1 2 82.5
.ends

.subckt PM_ALU_X_LE1_X_MUX21A_NI1_N$462 1 2
r1 1 2 82.5
.ends

.subckt PM_ALU_X_LE1_X_MUX21A_NI1_N$457 1 2
r2 1 2 104.812
.ends

.subckt PM_ALU_X_LE1_X_MUX21A_NI1_N$459 1 2
r1 1 2 106.425
.ends

.subckt PM_ALU_X_LE1_X_MUX21A_NI2_N$223 2 4 7 9 11 14 18 20 22 27 29 32 42 45
+ 48
c94 48 0 0.070386f
c95 45 0 0.0483682f
c96 42 0 0.283249f
c97 20 0 0.230557f
c98 18 0 0.423909f
c99 14 0 0.111602f
c100 11 0 0.383178f
c101 9 0 0.0249185f
c102 7 0 0.0177423f
c103 4 0 0.136087f
c104 2 0 0.129646f
r105 34 45 453.125
r106 32 34 53.75
r107 29 48 343.75
r108 27 29 41.6667
r109 22 42 0.0583115
r110 20 22 40
r111 20 24 6.9375
r112 20 23 8.21799
r113 16 18 58.1429
r114 15 24 4.59228
r115 14 16 5.58729
r116 14 15 15.7143
r117 11 23 60.1429
r118 7 45 0.09375
r119 6 9 0.0110046
r120 6 42 0.596
r121 4 7 0.0577699
r122 3 9 0.0423445
r123 3 4 0.283
r124 2 9 0.0423445
r125 1 48 0.120236
r126 1 2 0.351
.ends

.subckt PM_ALU_X_LE1_X_MUX21A_NI2_N$461 2 4 5 6 7 8 10 11 13 15 17 22 26 28 31
+ 32 36 37 47 50
c106 50 0 0.037486f
c107 47 0 0.0409793f
c108 28 0 0.230712f
c109 22 0 0.374685f
c110 17 0 0.524613f
c111 15 0 0.0322654f
c112 13 0 0.00541126f
c113 11 0 0.161475f
c114 10 0 0.103455f
c115 8 0 0.0406565f
c116 7 0 0.0338348f
c117 6 0 0.0393471f
c118 5 0 0.124861f
c119 4 0 0.0408537f
c120 2 0 0.0520084f
r121 39 47 453.125
r122 37 39 54.2875
r123 36 39 54.825
r124 34 50 343.75
r125 32 34 41.6667
r126 31 34 41.6667
r127 24 26 40
r128 24 28 6
r129 20 28 4.59228
r130 20 22 41.4286
r131 16 28 4.59228
r132 16 17 86.2857
r133 13 47 0.094375
r134 12 15 0.0423445
r135 11 26 0.0579937
r136 11 12 0.461
r137 10 15 0.0110046
r138 9 10 0.327
r139 7 15 0.0423445
r140 7 8 0.179
r141 5 9 0.0558729
r142 5 6 0.193
r143 4 13 0.0587411
r144 3 8 0.0558729
r145 3 4 0.092
r146 2 6 0.0558729
r147 1 50 0.114044
r148 1 2 0.115
.ends

.subckt PM_ALU_X_LE1_X_MUX21A_NI2_N$464 1 2
r2 1 2 82.5
.ends

.subckt PM_ALU_X_LE1_X_MUX21A_NI2_N$462 1 2
r2 1 2 82.5
.ends

.subckt PM_ALU_X_LE1_X_MUX21A_NI2_N$457 1 2
r0 1 2 104.812
.ends

.subckt PM_ALU_X_LE1_X_MUX21A_NI2_N$459 1 2
r1 1 2 106.425
.ends

.subckt PM_ALU_X_LE1_X_MUX21A_NI3_N$223 2 4 7 9 11 14 18 20 22 27 29 32 34 42
+ 45 48
c89 48 0 0.0708243f
c90 45 0 0.0512398f
c91 42 0 0.274036f
c92 20 0 0.233081f
c93 18 0 0.432242f
c94 14 0 0.111602f
c95 11 0 0.388738f
c96 9 0 0.0249185f
c97 7 0 0.0176562f
c98 4 0 0.136705f
c99 2 0 0.129662f
r100 34 45 453.125
r101 32 34 53.75
r102 29 48 343.75
r103 27 29 41.6667
r104 22 42 0.0583115
r105 20 22 40
r106 20 24 6.9375
r107 20 23 8.21799
r108 16 18 58.1429
r109 15 24 4.59228
r110 14 16 5.58729
r111 14 15 15.7143
r112 11 23 60.1429
r113 7 45 0.09375
r114 6 9 0.0110046
r115 6 42 0.596
r116 4 7 0.0577699
r117 3 9 0.0423445
r118 3 4 0.283
r119 2 9 0.0423445
r120 1 48 0.120236
r121 1 2 0.351
.ends

.subckt PM_ALU_X_LE1_X_MUX21A_NI3_N$461 2 4 5 6 7 8 10 11 13 17 22 26 28 31 32
+ 36 37 47 50
c75 50 0 0.0379808f
c76 47 0 0.0409793f
c77 28 0 0.241784f
c78 22 0 0.365076f
c79 17 0 0.531605f
c80 15 0 0.0469f
c81 13 0 0.00541126f
c82 11 0 0.192192f
c83 10 0 0.096858f
c84 8 0 0.0398581f
c85 7 0 0.0456093f
c86 6 0 0.0311518f
c87 5 0 0.127465f
c88 4 0 0.032404f
c89 2 0 0.0423658f
r90 39 47 453.125
r91 37 39 54.2875
r92 36 39 54.825
r93 34 50 343.75
r94 32 34 41.6667
r95 31 34 41.6667
r96 24 26 40
r97 24 28 6
r98 20 28 4.59228
r99 20 22 41.4286
r100 16 28 4.59228
r101 16 17 86.2857
r102 13 47 0.094375
r103 12 15 0.0423445
r104 11 26 0.0579937
r105 11 12 0.461
r106 10 15 0.0110046
r107 9 10 0.327
r108 7 15 0.0423445
r109 7 8 0.179
r110 5 9 0.0558729
r111 5 6 0.193
r112 4 13 0.0587411
r113 3 8 0.0558729
r114 3 4 0.092
r115 2 6 0.0558729
r116 1 50 0.114044
r117 1 2 0.115
.ends

.subckt PM_ALU_X_LE1_X_MUX21A_NI3_N$464 1 2
r2 1 2 82.5
.ends

.subckt PM_ALU_X_LE1_X_MUX21A_NI3_N$462 1 2
r2 1 2 82.5
.ends

.subckt PM_ALU_X_LE1_X_MUX21A_NI3_N$457 1 2
r0 1 2 104.812
.ends

.subckt PM_ALU_X_LE1_X_MUX21A_NI3_N$459 1 2
r0 1 2 106.425
.ends

.subckt PM_ALU_X_MUX21A_NI1_N$223 2 4 7 9 11 14 18 20 22 27 29 32 42 45 48
c85 48 0 0.0710021f
c86 45 0 0.0499716f
c87 42 0 0.283935f
c88 20 0 0.236749f
c89 18 0 0.419945f
c90 14 0 0.111813f
c91 11 0 0.385751f
c92 9 0 0.0241711f
c93 7 0 0.022766f
c94 4 0 0.118861f
c95 2 0 0.121065f
r96 34 45 453.125
r97 32 34 53.75
r98 29 48 343.75
r99 27 29 41.6667
r100 22 42 0.0583115
r101 20 22 40
r102 20 24 6.9375
r103 20 23 8.21799
r104 16 18 58.1429
r105 15 24 4.59228
r106 14 16 5.58729
r107 14 15 15.7143
r108 11 23 60.1429
r109 7 45 0.09375
r110 6 9 0.0110046
r111 6 42 0.596
r112 4 7 0.0577699
r113 3 9 0.0423445
r114 3 4 0.283
r115 2 9 0.0423445
r116 1 48 0.120236
r117 1 2 0.351
.ends

.subckt PM_ALU_X_MUX21A_NI1_N$461 2 4 5 6 7 8 10 11 13 15 17 22 26 28 31 32 36
+ 37 47 50
c93 50 0 0.036884f
c94 47 0 0.0367042f
c95 28 0 0.244957f
c96 22 0 0.3639f
c97 17 0 0.516891f
c98 15 0 0.0322028f
c99 13 0 0.00541126f
c100 11 0 0.166008f
c101 10 0 0.103455f
c102 8 0 0.046877f
c103 7 0 0.0373177f
c104 6 0 0.0346031f
c105 5 0 0.13089f
c106 4 0 0.0501396f
c107 2 0 0.0505533f
r108 39 47 453.125
r109 37 39 54.2875
r110 36 39 54.825
r111 34 50 343.75
r112 32 34 41.6667
r113 31 34 41.6667
r114 24 26 40
r115 24 28 6
r116 20 28 4.59228
r117 20 22 41.4286
r118 16 28 4.59228
r119 16 17 86.2857
r120 13 47 0.094375
r121 12 15 0.0423445
r122 11 26 0.0579937
r123 11 12 0.461
r124 10 15 0.0110046
r125 9 10 0.327
r126 7 15 0.0423445
r127 7 8 0.179
r128 5 9 0.0558729
r129 5 6 0.193
r130 4 13 0.0587411
r131 3 8 0.0558729
r132 3 4 0.092
r133 2 6 0.0558729
r134 1 50 0.114044
r135 1 2 0.115
.ends

.subckt PM_ALU_X_MUX21A_NI1_N$464 1 2
r1 1 2 82.5
.ends

.subckt PM_ALU_X_MUX21A_NI1_N$462 1 2
r1 1 2 82.5
.ends

.subckt PM_ALU_X_MUX21A_NI1_N$457 1 2
r0 1 2 104.812
.ends

.subckt PM_ALU_X_MUX21A_NI1_N$459 1 2
r1 1 2 106.425
.ends

.subckt PM_ALU_X_LE1_X_OR02A1_N$429 1 2 3
r9 2 3 53.75
r10 1 3 53.75
.ends

.subckt PM_ALU_X_LE1_X_OR02A1_N$431 1 2 4 5 8 10 12 16 19 22 24 25 29 32 44
c78 22 0 0.349817f
c79 19 0 0.181336f
c80 12 0 0.471908f
c81 9 0 0.0234018f
c82 8 0 0.052383f
c83 5 0 0.0753388f
c84 4 0 0.164387f
c85 1 0 0.0546064f
r86 30 32 453.125
r87 29 30 53.75
r88 27 44 343.75
r89 25 27 41.6667
r90 24 27 41.6667
r91 19 22 8.32385
r92 19 21 8.32385
r93 19 37 40
r94 16 22 40
r95 12 21 78.5714
r96 10 32 0.121429
r97 8 10 0.0541558
r98 7 8 0.16
r99 6 9 0.0423445
r100 5 7 0.0558729
r101 5 6 0.15
r102 4 9 0.0110046
r103 3 44 0.0583115
r104 3 4 0.5
r105 2 37 0.0583115
r106 1 9 0.0423445
r107 1 2 0.24
.ends

.subckt PM_ALU_X_AE1_X_FULLADDER1_X_OR02A1_N$429 1 2 3
r6 2 3 53.75
r7 1 3 53.75
.ends

.subckt PM_ALU_X_AE1_X_FULLADDER1_X_OR02A1_N$431 1 2 4 5 8 9 10 12 16 19 22 24
+ 25 29 44
c65 22 0 0.374175f
c66 19 0 0.182702f
c67 12 0 0.467481f
c68 9 0 0.0209096f
c69 8 0 0.0617211f
c70 5 0 0.0668716f
c71 4 0 0.14034f
c72 1 0 0.0518343f
r73 30 32 453.125
r74 29 30 53.75
r75 27 44 343.75
r76 25 27 41.6667
r77 24 27 41.6667
r78 19 22 8.32385
r79 19 21 8.32385
r80 19 37 40
r81 16 22 40
r82 12 21 78.5714
r83 10 32 0.121429
r84 8 10 0.0541558
r85 7 8 0.16
r86 6 9 0.0423445
r87 5 7 0.0558729
r88 5 6 0.15
r89 4 9 0.0110046
r90 3 44 0.0583115
r91 3 4 0.5
r92 2 37 0.0583115
r93 1 9 0.0423445
r94 1 2 0.24
.ends

.subckt PM_ALU_X_LE1_X_AND02A1_N$649 1 2 3
r13 2 3 41.6667
r14 1 3 41.6667
.ends

.subckt PM_ALU_X_LE1_X_AND02A1_N$647 1 2 5 8 9 10 11 13 16 20 22 25 27 30 31 34
+ 45
c93 22 0 0.27244f
c94 20 0 0.167702f
c95 16 0 0.559895f
c96 11 0 0.0234444f
c97 10 0 0.179814f
c98 8 0 0.0523419f
c99 5 0 0.0713577f
c100 1 0 0.0523768f
r101 32 34 453.125
r102 31 32 53.75
r103 30 32 53.75
r104 27 45 343.75
r105 25 27 45.8333
r106 20 23 8.21799
r107 20 22 8.21799
r108 20 38 40
r109 16 23 90
r110 13 22 28.5714
r111 9 34 0.121429
r112 9 10 0.055541
r113 7 45 0.0583115
r114 7 8 0.16
r115 6 11 0.0423445
r116 5 8 0.0558729
r117 5 6 0.17
r118 3 11 0.0110046
r119 3 10 0.51
r120 2 38 0.0583115
r121 1 11 0.0423445
r122 1 2 0.25
.ends

.subckt PM_ALU_X_AE1_X_AND02A3_N$649 1 2 3
r10 2 3 41.6667
r11 1 3 41.6667
.ends

.subckt PM_ALU_X_AE1_X_AND02A3_N$647 1 2 5 8 9 10 13 16 20 22 25 27 30 31 34 45
c85 22 0 0.271471f
c86 20 0 0.168434f
c87 16 0 0.555005f
c88 11 0 0.0234474f
c89 10 0 0.140017f
c90 8 0 0.0602767f
c91 5 0 0.0894017f
c92 1 0 0.0589224f
r93 32 34 453.125
r94 31 32 53.75
r95 30 32 53.75
r96 27 45 343.75
r97 25 27 45.8333
r98 20 23 8.21799
r99 20 22 8.21799
r100 20 38 40
r101 16 23 90
r102 13 22 28.5714
r103 9 34 0.121429
r104 9 10 0.055541
r105 7 45 0.0583115
r106 7 8 0.16
r107 6 11 0.0423445
r108 5 8 0.0558729
r109 5 6 0.17
r110 3 11 0.0110046
r111 3 10 0.51
r112 2 38 0.0583115
r113 1 11 0.0423445
r114 1 2 0.25
.ends

.subckt PM_ALU_X_AE1_X_AND02A4_N$649 1 2 3
r11 2 3 41.6667
r12 1 3 41.6667
.ends

.subckt PM_ALU_X_AE1_X_AND02A4_N$647 1 2 5 8 9 10 11 13 16 20 22 25 27 30 31 34
+ 45
c84 22 0 0.271471f
c85 20 0 0.167846f
c86 16 0 0.557655f
c87 11 0 0.0246668f
c88 10 0 0.168493f
c89 8 0 0.0490186f
c90 5 0 0.0839692f
c91 1 0 0.0534665f
r92 32 34 453.125
r93 31 32 53.75
r94 30 32 53.75
r95 27 45 343.75
r96 25 27 45.8333
r97 20 23 8.21799
r98 20 22 8.21799
r99 20 38 40
r100 16 23 90
r101 13 22 28.5714
r102 9 34 0.121429
r103 9 10 0.055541
r104 7 45 0.0583115
r105 7 8 0.16
r106 6 11 0.0423445
r107 5 8 0.0558729
r108 5 6 0.17
r109 3 11 0.0110046
r110 3 10 0.51
r111 2 38 0.0583115
r112 1 11 0.0423445
r113 1 2 0.25
.ends

.subckt PM_ALU_X_AE1_X_FULLADDER1_X_AND02A1_N$649 1 2 3
r8 2 3 41.6667
r9 1 3 41.6667
.ends

.subckt PM_ALU_X_AE1_X_FULLADDER1_X_AND02A1_N$647 1 2 5 8 9 10 13 16 20 22 25
+ 27 30 31 34 45
c70 22 0 0.274099f
c71 20 0 0.167818f
c72 16 0 0.565838f
c73 11 0 0.0243597f
c74 10 0 0.141122f
c75 8 0 0.0627064f
c76 5 0 0.0905861f
c77 1 0 0.0596883f
r78 32 34 453.125
r79 31 32 53.75
r80 30 32 53.75
r81 27 45 343.75
r82 25 27 45.8333
r83 20 23 8.21799
r84 20 22 8.21799
r85 20 38 40
r86 16 23 90
r87 13 22 28.5714
r88 9 34 0.121429
r89 9 10 0.055541
r90 7 45 0.0583115
r91 7 8 0.16
r92 6 11 0.0423445
r93 5 8 0.0558729
r94 5 6 0.17
r95 3 11 0.0110046
r96 3 10 0.51
r97 2 38 0.0583115
r98 1 11 0.0423445
r99 1 2 0.25
.ends

.subckt PM_ALU_X_AE1_X_FULLADDER1_X_AND02A2_N$649 1 2 3
r11 2 3 41.6667
r12 1 3 41.6667
.ends

.subckt PM_ALU_X_AE1_X_FULLADDER1_X_AND02A2_N$647 1 2 5 8 9 10 11 13 16 20 22
+ 25 27 30 31 34 45
c84 22 0 0.274099f
c85 20 0 0.168353f
c86 16 0 0.547354f
c87 11 0 0.0223989f
c88 10 0 0.139692f
c89 8 0 0.0601019f
c90 5 0 0.0768985f
c91 1 0 0.0538314f
r92 32 34 453.125
r93 31 32 53.75
r94 30 32 53.75
r95 27 45 343.75
r96 25 27 45.8333
r97 20 23 8.21799
r98 20 22 8.21799
r99 20 38 40
r100 16 23 90
r101 13 22 28.5714
r102 9 34 0.121429
r103 9 10 0.055541
r104 7 45 0.0583115
r105 7 8 0.16
r106 6 11 0.0423445
r107 5 8 0.0558729
r108 5 6 0.17
r109 3 11 0.0110046
r110 3 10 0.51
r111 2 38 0.0583115
r112 1 11 0.0423445
r113 1 2 0.25
.ends

.subckt PM_ALU_X_AE1_X_AXOR2A3_N$467 1 2 4 6 7 8 12 16 22 23 25 29 34 35 48 51
+ 54
c69 48 0 0.0551229f
c70 23 0 0.176493f
c71 22 0 0.202152f
c72 16 0 0.37126f
c73 12 0 0.460639f
c74 8 0 0.937975f
c75 6 0 0.0332111f
c76 4 0 0.0356669f
c77 2 0 0.113096f
c78 1 0 0.0126173f
r79 37 51 453.125
r80 35 37 53.75
r81 34 37 53.75
r82 31 54 343.75
r83 29 31 41.6667
r84 25 48 0.0583115
r85 23 25 40
r86 23 26 8.26162
r87 19 22 8.21799
r88 19 25 40
r89 14 23 8.26162
r90 14 16 41.4286
r91 12 26 68.5714
r92 10 12 42.1429
r93 8 10 5.58729
r94 8 22 205.714
r95 7 51 0.114286
r96 6 48 0.23
r97 4 7 0.0541558
r98 3 6 0.0558729
r99 3 4 0.17
r100 2 54 0.0583115
r101 1 25 0.0578264
r102 1 2 0.24
.ends

.subckt PM_ALU_X11_noxref_7 2 3 4 7 12 13 16 19 24
c33 24 0 0.055112f
c34 4 0 0.00844637f
c35 3 0 0.0470229f
c36 2 0 0.0625519f
r37 16 24 0.0583115
r38 14 16 343.75
r39 13 14 41.6667
r40 12 14 41.6667
r41 9 19 343.75
r42 7 9 41.6667
r43 5 24 0.17
r44 3 5 0.0558729
r45 3 4 0.46
r46 2 19 0.0583115
r47 1 4 0.0558729
r48 1 2 0.17
.ends

.subckt PM_ALU_X_AE1_X_AXOR2A3_N$470 2 3 4 6 7 10 11 13 14 15 17 19 24 26 32 33
+ 37 42 51 57 60 63
c83 51 0 0.0168618f
c84 26 0 0.215582f
c85 24 0 0.51857f
c86 19 0 0.298471f
c87 17 0 0.0255353f
c88 14 0 0.0277304f
c89 13 0 0.0057331f
c90 11 0 0.144559f
c91 10 0 0.17446f
c92 7 0 0.096982f
c93 6 0 0.0278153f
c94 4 0 0.0433478f
c95 3 0 0.173358f
c96 2 0 0.189299f
r97 44 60 453.125
r98 42 44 53.75
r99 39 57 453.125
r100 37 39 53.75
r101 35 63 343.75
r102 33 35 41.6667
r103 32 35 41.6667
r104 28 51 0.0428571
r105 26 28 40
r106 26 29 8.4874
r107 22 26 8.4874
r108 22 24 77.1429
r109 19 29 32.8571
r110 15 60 0.114286
r111 13 57 0.157143
r112 12 17 0.0423445
r113 11 51 0.0222012
r114 11 12 0.23
r115 10 15 0.0583115
r116 9 17 0.0110046
r117 9 10 0.49
r118 8 14 0.0423445
r119 7 17 0.0423445
r120 7 8 0.45
r121 6 14 0.0110046
r122 5 63 0.0583115
r123 5 6 0.13
r124 3 14 0.0423445
r125 3 4 0.5
r126 2 13 0.0541558
r127 1 4 0.0558729
r128 1 2 0.44
.ends

.subckt PM_ALU_X_AE1_X_AXOR2A3_N$468 1 2
r2 1 2 83.3333
.ends

.subckt PM_ALU_X11_noxref_12 1 2
r0 1 2 107.5
.ends

.subckt PM_ALU_X_AE1_X_AXOR2A4_N$467 1 2 4 6 7 8 12 16 22 23 25 29 34 35 48 51
+ 54
c61 48 0 0.0551229f
c62 23 0 0.176493f
c63 22 0 0.216085f
c64 16 0 0.362533f
c65 12 0 0.460441f
c66 8 0 1.01388f
c67 6 0 0.0332111f
c68 4 0 0.0356669f
c69 2 0 0.116869f
c70 1 0 0.0197042f
r71 37 51 453.125
r72 35 37 53.75
r73 34 37 53.75
r74 31 54 343.75
r75 29 31 41.6667
r76 25 48 0.0583115
r77 23 25 40
r78 23 26 8.26162
r79 19 22 8.21799
r80 19 25 40
r81 14 23 8.26162
r82 14 16 41.4286
r83 12 26 68.5714
r84 10 12 42.1429
r85 8 10 5.58729
r86 8 22 205.714
r87 7 51 0.114286
r88 6 48 0.23
r89 4 7 0.0541558
r90 3 6 0.0558729
r91 3 4 0.17
r92 2 54 0.0583115
r93 1 25 0.0578264
r94 1 2 0.24
.ends

.subckt PM_ALU_X12_noxref_7 2 3 4 7 12 13 16 19 24
c28 24 0 0.0448965f
c29 4 0 0.00844637f
c30 3 0 0.0577079f
c31 2 0 0.0605783f
r32 16 24 0.0583115
r33 14 16 343.75
r34 13 14 41.6667
r35 12 14 41.6667
r36 9 19 343.75
r37 7 9 41.6667
r38 5 24 0.17
r39 3 5 0.0558729
r40 3 4 0.46
r41 2 19 0.0583115
r42 1 4 0.0558729
r43 1 2 0.17
.ends

.subckt PM_ALU_X_AE1_X_AXOR2A4_N$470 2 3 4 6 7 10 11 13 14 15 19 24 26 32 33 37
+ 39 42 44 51 57 60 63
c75 51 0 0.0200816f
c76 26 0 0.215582f
c77 24 0 0.52198f
c78 19 0 0.307624f
c79 17 0 0.0258383f
c80 14 0 0.0277304f
c81 13 0 0.0062698f
c82 11 0 0.16065f
c83 10 0 0.17446f
c84 7 0 0.108698f
c85 6 0 0.0272151f
c86 4 0 0.0354942f
c87 3 0 0.195095f
c88 2 0 0.148658f
r89 44 60 453.125
r90 42 44 53.75
r91 39 57 453.125
r92 37 39 53.75
r93 35 63 343.75
r94 33 35 41.6667
r95 32 35 41.6667
r96 28 51 0.0428571
r97 26 28 40
r98 26 29 8.4874
r99 22 26 8.4874
r100 22 24 77.1429
r101 19 29 32.8571
r102 15 60 0.114286
r103 13 57 0.157143
r104 12 17 0.0423445
r105 11 51 0.0222012
r106 11 12 0.23
r107 10 15 0.0583115
r108 9 17 0.0110046
r109 9 10 0.49
r110 8 14 0.0423445
r111 7 17 0.0423445
r112 7 8 0.45
r113 6 14 0.0110046
r114 5 63 0.0583115
r115 5 6 0.13
r116 3 14 0.0423445
r117 3 4 0.5
r118 2 13 0.0541558
r119 1 4 0.0558729
r120 1 2 0.44
.ends

.subckt PM_ALU_X_AE1_X_AXOR2A4_N$468 1 2
r0 1 2 83.3333
.ends

.subckt PM_ALU_X12_noxref_12 1 2
r1 1 2 107.5
.ends

.subckt PM_ALU_X_AE1_X_FULLADDER1_X_AXOR2A2_N$467 1 2 4 6 7 8 12 16 22 23 25 29
+ 34 35 48 51 54
c68 48 0 0.0501298f
c69 23 0 0.174894f
c70 22 0 0.215644f
c71 16 0 0.371959f
c72 12 0 0.4614f
c73 8 0 0.968875f
c74 6 0 0.0332111f
c75 4 0 0.0356669f
c76 2 0 0.0926773f
c77 1 0 0.0197042f
r78 37 51 453.125
r79 35 37 53.75
r80 34 37 53.75
r81 31 54 343.75
r82 29 31 41.6667
r83 25 48 0.0583115
r84 23 25 40
r85 23 26 8.26162
r86 19 22 8.21799
r87 19 25 40
r88 14 23 8.26162
r89 14 16 41.4286
r90 12 26 68.5714
r91 10 12 42.1429
r92 8 10 5.58729
r93 8 22 205.714
r94 7 51 0.114286
r95 6 48 0.23
r96 4 7 0.0541558
r97 3 6 0.0558729
r98 3 4 0.17
r99 2 54 0.0583115
r100 1 25 0.0578264
r101 1 2 0.24
.ends

.subckt PM_ALU_X13_noxref_7 2 3 4 7 12 13 16 19 24
c30 24 0 0.0543411f
c31 4 0 0.00844637f
c32 3 0 0.0469166f
c33 2 0 0.0608163f
r34 16 24 0.0583115
r35 14 16 343.75
r36 13 14 41.6667
r37 12 14 41.6667
r38 9 19 343.75
r39 7 9 41.6667
r40 5 24 0.17
r41 3 5 0.0558729
r42 3 4 0.46
r43 2 19 0.0583115
r44 1 4 0.0558729
r45 1 2 0.17
.ends

.subckt PM_ALU_X_AE1_X_FULLADDER1_X_AXOR2A2_N$470 2 3 4 6 7 10 11 13 14 15 17
+ 19 24 26 32 33 37 39 42 44 51 57 60 63
c81 51 0 0.0169339f
c82 26 0 0.215582f
c83 24 0 0.53142f
c84 19 0 0.296633f
c85 17 0 0.0255685f
c86 14 0 0.0277304f
c87 13 0 0.00571996f
c88 11 0 0.144822f
c89 10 0 0.17446f
c90 7 0 0.0972114f
c91 6 0 0.0278153f
c92 4 0 0.0341245f
c93 3 0 0.173786f
c94 2 0 0.173839f
r95 44 60 453.125
r96 42 44 53.75
r97 39 57 453.125
r98 37 39 53.75
r99 35 63 343.75
r100 33 35 41.6667
r101 32 35 41.6667
r102 28 51 0.0428571
r103 26 28 40
r104 26 29 8.4874
r105 22 26 8.4874
r106 22 24 77.1429
r107 19 29 32.8571
r108 15 60 0.114286
r109 13 57 0.157143
r110 12 17 0.0423445
r111 11 51 0.0222012
r112 11 12 0.23
r113 10 15 0.0583115
r114 9 17 0.0110046
r115 9 10 0.49
r116 8 14 0.0423445
r117 7 17 0.0423445
r118 7 8 0.45
r119 6 14 0.0110046
r120 5 63 0.0583115
r121 5 6 0.13
r122 3 14 0.0423445
r123 3 4 0.5
r124 2 13 0.0541558
r125 1 4 0.0558729
r126 1 2 0.44
.ends

.subckt PM_ALU_X_AE1_X_FULLADDER1_X_AXOR2A2_N$468 1 2
r2 1 2 83.3333
.ends

.subckt PM_ALU_X13_noxref_12 1 2
r2 1 2 107.5
.ends

.subckt PM_ALU_X_AE1_X_FULLADDER1_X_AXOR2A1_N$467 1 2 4 6 7 8 12 16 22 23 25 29
+ 34 35 48 51 54
c78 48 0 0.0487188f
c79 23 0 0.176493f
c80 22 0 0.214187f
c81 16 0 0.370784f
c82 12 0 0.454831f
c83 8 0 0.958475f
c84 6 0 0.0329695f
c85 4 0 0.0345003f
c86 2 0 0.109696f
c87 1 0 0.0197042f
r88 37 51 453.125
r89 35 37 53.75
r90 34 37 53.75
r91 31 54 343.75
r92 29 31 41.6667
r93 25 48 0.0583115
r94 23 25 40
r95 23 26 8.26162
r96 19 22 8.21799
r97 19 25 40
r98 14 23 8.26162
r99 14 16 41.4286
r100 12 26 68.5714
r101 10 12 42.1429
r102 8 10 5.58729
r103 8 22 205.714
r104 7 51 0.114286
r105 6 48 0.23
r106 4 7 0.0541558
r107 3 6 0.0558729
r108 3 4 0.17
r109 2 54 0.0583115
r110 1 25 0.0578264
r111 1 2 0.24
.ends

.subckt PM_ALU_X14_noxref_7 2 3 4 7 12 13 16 19 24
c35 24 0 0.0543411f
c36 4 0 0.00844637f
c37 3 0 0.0469166f
c38 2 0 0.0608163f
r39 16 24 0.0583115
r40 14 16 343.75
r41 13 14 41.6667
r42 12 14 41.6667
r43 9 19 343.75
r44 7 9 41.6667
r45 5 24 0.17
r46 3 5 0.0558729
r47 3 4 0.46
r48 2 19 0.0583115
r49 1 4 0.0558729
r50 1 2 0.17
.ends

.subckt PM_ALU_X_AE1_X_FULLADDER1_X_AXOR2A1_N$470 2 3 4 6 7 10 11 13 14 15 17
+ 19 24 26 32 33 37 42 44 51 57 60 63
c103 51 0 0.0142223f
c104 26 0 0.212651f
c105 24 0 0.538081f
c106 19 0 0.294132f
c107 17 0 0.024073f
c108 14 0 0.0277304f
c109 13 0 0.0057044f
c110 11 0 0.160574f
c111 10 0 0.201988f
c112 7 0 0.0956465f
c113 6 0 0.0428833f
c114 4 0 0.0342642f
c115 3 0 0.167169f
c116 2 0 0.175802f
r117 44 60 453.125
r118 42 44 53.75
r119 39 57 453.125
r120 37 39 53.75
r121 35 63 343.75
r122 33 35 41.6667
r123 32 35 41.6667
r124 28 51 0.0428571
r125 26 28 40
r126 26 29 8.4874
r127 22 26 8.4874
r128 22 24 77.1429
r129 19 29 32.8571
r130 15 60 0.114286
r131 13 57 0.157143
r132 12 17 0.0423445
r133 11 51 0.0222012
r134 11 12 0.23
r135 10 15 0.0583115
r136 9 17 0.0110046
r137 9 10 0.49
r138 8 14 0.0423445
r139 7 17 0.0423445
r140 7 8 0.45
r141 6 14 0.0110046
r142 5 63 0.0583115
r143 5 6 0.13
r144 3 14 0.0423445
r145 3 4 0.5
r146 2 13 0.0541558
r147 1 4 0.0558729
r148 1 2 0.44
.ends

.subckt PM_ALU_X_AE1_X_FULLADDER1_X_AXOR2A1_N$468 1 2
r2 1 2 83.3333
.ends

.subckt PM_ALU_X14_noxref_12 1 2
r4 1 2 107.5
.ends

.subckt PM_ALU_VDD 1 3 4 5 6 7 8 9 15 16 58 63 68 70 73 94 97 100 103 109 127
+ 129 130 131 132 133 134 135 141 142 184 189 194 196 199 220 223 226 229 235 253
+ 255 256 257 258 259 260 261 267 268 310 315 320 325 346 349 352 355 361 379 380
+ 381 382 383 384 385 386 393 394 431 436 441 446 448 451 472 475 478 481 487 507
+ 508 511 531 532 543 553 554 577 578 589 599 600 603 607 608 628 629 633 635 646
+ 648 659 663 666 669 674 675 683 684 687 691 692 696 712 713 717 719 730 732 744
+ 745 748 753 773 774 778 780 791 793 805 806 809 814 834 835 839 841 852 854 866
+ 867 870 875 895 896 900 902 913 915 927 931 932 935 936 939 940 942 945 948 993
+ 998 1003 1004 1008 1031 1033 1036 1038 1041 1063 1067 1068 1071 1072 1075 1076
+ 1078 1081 1084 1129 1134 1139 1140 1144 1167 1169 1172 1174 1177 1199 1203 1204
+ 1207 1208 1211 1212 1214 1217 1220 1265 1270 1275 1276 1280 1303 1305 1308 1310
+ 1313 1335 1339 1340 1343 1344 1347 1348 1350 1353 1356 1401 1406 1411 1412 1416
+ 1439 1441 1444 1446 1449 1471 1480 1488 1494 1503 1511 1653 1655 1656 1658 1659
+ 1661 1662 1664 1665 1667 1668 1670 1673 1674 1676 1679 1682 1683 1685 1686 1688
+ 1691 1706 1707 1711 1731 1734 1736 1738 1743 1745 1752 1758 1759 1762
c899 1762 0 0.164107f
c900 1752 0 0.0916834f
c901 1747 0 0.262769f
c902 1745 0 1.32221f
c903 1743 0 0.74559f
c904 1736 0 1.43382f
c905 1734 0 1.19607f
c906 1731 0 0.706561f
c907 1711 0 0.66207f
c908 1707 0 1.70329f
c909 1706 0 0.821721f
c910 1691 0 0.342392f
c911 1688 0 1.02101f
c912 1686 0 0.249011f
c913 1685 0 0.998894f
c914 1683 0 0.265201f
c915 1682 0 1.20663f
c916 1679 0 0.248379f
c917 1676 0 0.24252f
c918 1674 0 0.281862f
c919 1673 0 1.21f
c920 1670 0 0.24217f
c921 1668 0 0.281512f
c922 1667 0 0.301688f
c923 1665 0 0.191f
c924 1664 0 0.325066f
c925 1662 0 0.188551f
c926 1661 0 0.323767f
c927 1659 0 0.188551f
c928 1658 0 0.297927f
c929 1656 0 0.297927f
c930 1655 0 1.52091f
c931 1653 0 0.743537f
c932 1511 0 0.0598518f
c933 1494 0 0.022895f
c934 1488 0 0.0458438f
c935 1471 0 0.0139247f
c936 1449 0 0.774859f
c937 1446 0 0.0289655f
c938 1439 0 0.016964f
c939 1357 0 0.0942601f
c940 1356 0 0.503479f
c941 1354 0 0.08592f
c942 1353 0 0.428282f
c943 1351 0 0.0921751f
c944 1350 0 1.09851f
c945 1348 0 0.349042f
c946 1344 0 0.319092f
c947 1340 0 0.267488f
c948 1313 0 0.463589f
c949 1310 0 0.0289763f
c950 1303 0 0.0158002f
c951 1221 0 0.0942601f
c952 1220 0 0.515964f
c953 1218 0 0.08592f
c954 1217 0 0.434123f
c955 1215 0 0.0921751f
c956 1214 0 0.780102f
c957 1212 0 0.385528f
c958 1208 0 0.330405f
c959 1204 0 0.299124f
c960 1177 0 0.10368f
c961 1174 0 0.0289763f
c962 1167 0 0.020817f
c963 1084 0 0.50476f
c964 1082 0 0.08592f
c965 1081 0 0.429639f
c966 1079 0 0.0921751f
c967 1078 0 1.3309f
c968 1076 0 0.365783f
c969 1072 0 0.322071f
c970 1068 0 0.279378f
c971 1041 0 0.10368f
c972 1038 0 0.0289763f
c973 1031 0 0.0207574f
c974 949 0 0.0942601f
c975 948 0 0.50476f
c976 946 0 0.08592f
c977 945 0 0.429639f
c978 943 0 0.0921751f
c979 942 0 1.3309f
c980 940 0 0.366615f
c981 936 0 0.311717f
c982 932 0 0.280436f
c983 875 0 0.55596f
c984 874 0 0.0869625f
c985 867 0 0.34728f
c986 814 0 0.556656f
c987 813 0 0.0869625f
c988 806 0 0.327067f
c989 753 0 0.765555f
c990 752 0 0.0869625f
c991 745 0 0.355219f
c992 696 0 0.211302f
c993 692 0 0.765555f
c994 691 0 0.904169f
c995 684 0 0.358529f
c996 675 0 0.00180502f
c997 674 0 0.0490595f
c998 669 0 0.332701f
c999 666 0 0.182047f
c1000 659 0 0.465006f
c1001 608 0 0.954358f
c1002 607 0 0.0869625f
c1003 600 0 0.338147f
c1004 557 0 0.0942601f
c1005 554 0 0.363553f
c1006 511 0 0.0942601f
c1007 508 0 0.360553f
c1008 487 0 1.02328f
c1009 481 0 0.0303955f
c1010 478 0 0.0355612f
c1011 475 0 0.0251846f
c1012 472 0 0.137844f
c1013 394 0 0.0894645f
c1014 393 0 0.428321f
c1015 386 0 0.233134f
c1016 385 0 0.0177609f
c1017 384 0 0.233134f
c1018 383 0 0.0223102f
c1019 382 0 0.172746f
c1020 381 0 0.00877404f
c1021 380 0 0.241528f
c1022 379 0 0.0419036f
c1023 361 0 1.02088f
c1024 355 0 0.0313628f
c1025 352 0 0.0372291f
c1026 349 0 0.0246194f
c1027 346 0 0.119673f
c1028 268 0 0.0894645f
c1029 267 0 0.84436f
c1030 261 0 0.632153f
c1031 260 0 0.198709f
c1032 259 0 0.0211143f
c1033 258 0 0.206585f
c1034 257 0 0.0267813f
c1035 256 0 0.183132f
c1036 255 0 0.00882407f
c1037 253 0 0.0417464f
c1038 235 0 1.02088f
c1039 229 0 0.030722f
c1040 226 0 0.03576f
c1041 223 0 0.0247625f
c1042 220 0 0.135556f
c1043 142 0 0.0894645f
c1044 141 0 0.840355f
c1045 135 0 0.611201f
c1046 134 0 0.206471f
c1047 133 0 0.0211143f
c1048 132 0 0.206585f
c1049 131 0 0.0267813f
c1050 130 0 0.191663f
c1051 129 0 0.00882407f
c1052 127 0 0.0401445f
c1053 109 0 1.00123f
c1054 103 0 0.0310123f
c1055 100 0 0.0355621f
c1056 97 0 0.0286206f
c1057 94 0 0.123508f
c1058 16 0 0.0894645f
c1059 15 0 1.67337f
c1060 9 0 0.246666f
c1061 8 0 0.211715f
c1062 7 0 0.018509f
c1063 6 0 0.211747f
c1064 5 0 0.0221649f
c1065 4 0 0.18128f
c1066 3 0 0.00843198f
c1067 1 0 0.0394943f
r1068 1755 1758 0.0564744
r1069 1755 1762 16.8
r1070 1752 1759 0.0564744
r1071 1752 1758 0.526667
r1072 1744 1745 0.0931365
r1073 1743 1745 0.456794
r1074 1736 1749 0.102887
r1075 1736 1738 0.0259561
r1076 1734 1748 0.18833
r1077 1734 1747 0.102108
r1078 1731 1747 0.0518673
r1079 1717 1718 0.17275
r1080 1712 1713 0.17275
r1081 1711 1740 0.0405603
r1082 1710 1762 0.051218
r1083 1710 1711 0.540556
r1084 1707 1708 0.0275
r1085 1706 1740 0.023269
r1086 1698 1699 0.16525
r1087 1693 1749 0.0345
r1088 1691 1744 0.0748438
r1089 1686 1729 0.0748438
r1090 1683 1727 0.0748438
r1091 1679 1723 0.0748438
r1092 1676 1718 0.0748438
r1093 1674 1717 0.0748438
r1094 1670 1713 0.0748438
r1095 1668 1712 0.0748438
r1096 1667 1708 0.0748438
r1097 1665 1705 0.0748438
r1098 1662 1703 0.0748438
r1099 1659 1701 0.0748438
r1100 1658 1699 0.0748438
r1101 1656 1698 0.0748438
r1102 1505 1511 453.125
r1103 1503 1505 53.75
r1104 1499 1706 0.11025
r1105 1499 1708 0.035
r1106 1494 1511 0.0583115
r1107 1494 1667 0.6
r1108 1482 1488 453.125
r1109 1480 1482 53.75
r1110 1476 1701 0.19175
r1111 1476 1699 0.035
r1112 1471 1488 0.0583115
r1113 1471 1658 0.6
r1114 1418 1446 453.125
r1115 1416 1418 53.75
r1116 1414 1444 453.125
r1117 1412 1414 53.75
r1118 1411 1414 53.75
r1119 1408 1441 453.125
r1120 1406 1408 53.75
r1121 1403 1439 453.125
r1122 1401 1403 53.75
r1123 1397 1681 0.0375
r1124 1385 1391 0.09
r1125 1367 1373 0.09
r1126 1367 1449 0.0875
r1127 1361 1449 0.0025
r1128 1361 1723 0.01
r1129 1357 1681 0.0120039
r1130 1356 1391 0.0275
r1131 1356 1357 0.0120039
r1132 1353 1379 0.0575
r1133 1353 1354 0.0120039
r1134 1352 1385 0.0075
r1135 1352 1354 0.0120039
r1136 1350 1373 0.015
r1137 1350 1351 0.0120039
r1138 1349 1379 0.05
r1139 1349 1351 0.0120039
r1140 1348 1357 0.0539771
r1141 1347 1446 0.0583115
r1142 1347 1348 0.59
r1143 1344 1354 0.0539771
r1144 1343 1444 0.0583115
r1145 1343 1344 0.59
r1146 1340 1351 0.0539771
r1147 1339 1441 0.0583115
r1148 1339 1340 0.59
r1149 1335 1439 0.0583115
r1150 1335 1679 0.58
r1151 1282 1310 453.125
r1152 1280 1282 53.75
r1153 1278 1308 453.125
r1154 1276 1278 53.75
r1155 1275 1278 53.75
r1156 1272 1305 453.125
r1157 1270 1272 53.75
r1158 1267 1303 453.125
r1159 1265 1267 53.75
r1160 1261 1723 0.185
r1161 1261 1678 0.0375
r1162 1249 1255 0.09
r1163 1231 1237 0.09
r1164 1231 1313 0.0875
r1165 1225 1313 0.0025
r1166 1225 1744 0.01
r1167 1221 1678 0.0120039
r1168 1220 1255 0.0275
r1169 1220 1221 0.0120039
r1170 1217 1243 0.0575
r1171 1217 1218 0.0120039
r1172 1216 1249 0.0075
r1173 1216 1218 0.0120039
r1174 1214 1237 0.015
r1175 1214 1215 0.0120039
r1176 1213 1243 0.05
r1177 1213 1215 0.0120039
r1178 1212 1221 0.0539771
r1179 1211 1310 0.0583115
r1180 1211 1212 0.59
r1181 1208 1218 0.0539771
r1182 1207 1308 0.0583115
r1183 1207 1208 0.59
r1184 1204 1215 0.0539771
r1185 1203 1305 0.0583115
r1186 1203 1204 0.59
r1187 1199 1303 0.0583115
r1188 1199 1691 0.58
r1189 1146 1174 453.125
r1190 1144 1146 53.75
r1191 1142 1172 453.125
r1192 1140 1142 53.75
r1193 1139 1142 53.75
r1194 1136 1169 453.125
r1195 1134 1136 53.75
r1196 1131 1167 453.125
r1197 1129 1131 53.75
r1198 1125 1743 0.108137
r1199 1125 1690 0.0375
r1200 1113 1119 0.09
r1201 1095 1101 0.09
r1202 1095 1177 0.0875
r1203 1089 1177 0.0025
r1204 1089 1718 0.01
r1205 1085 1690 0.0120039
r1206 1084 1119 0.0275
r1207 1084 1085 0.0120039
r1208 1081 1107 0.0575
r1209 1081 1082 0.0120039
r1210 1080 1113 0.0075
r1211 1080 1082 0.0120039
r1212 1078 1101 0.015
r1213 1078 1079 0.0120039
r1214 1077 1107 0.05
r1215 1077 1079 0.0120039
r1216 1076 1085 0.0539771
r1217 1075 1174 0.0583115
r1218 1075 1076 0.59
r1219 1072 1082 0.0539771
r1220 1071 1172 0.0583115
r1221 1071 1072 0.59
r1222 1068 1079 0.0539771
r1223 1067 1169 0.0583115
r1224 1067 1068 0.59
r1225 1063 1167 0.0583115
r1226 1063 1676 0.58
r1227 1010 1038 453.125
r1228 1008 1010 53.75
r1229 1006 1036 453.125
r1230 1004 1006 53.75
r1231 1003 1006 53.75
r1232 1000 1033 453.125
r1233 998 1000 53.75
r1234 995 1031 453.125
r1235 993 995 53.75
r1236 989 1672 0.0375
r1237 977 983 0.09
r1238 959 965 0.09
r1239 959 1041 0.0875
r1240 953 1041 0.0025