* File: LE.pex.netlist.pex
* Created: Wed Dec  3 00:29:43 2014
* Program "Calibre xRC"
* Version "v2011.1_15.11"
* Nominal Temperature: 27C
* Circuit Temperature: 27C
* 
.subckt PM_LE_X_MUX21A_NI1_N$223 2 4 7 9 11 14 18 20 22 27 29 32 34 42 45 48
c82 48 0 0.0709217f
c83 45 0 0.0498921f
c84 42 0 0.263214f
c85 20 0 0.228305f
c86 18 0 0.423879f
c87 14 0 0.111602f
c88 11 0 0.381575f
c89 9 0 0.0249185f
c90 7 0 0.0225178f
c91 4 0 0.12637f
c92 2 0 0.127613f
r93 34 45 453.125
r94 32 34 53.75
r95 29 48 343.75
r96 27 29 41.6667
r97 22 42 0.0583115
r98 20 22 40
r99 20 24 6.9375
r100 20 23 8.21799
r101 16 18 58.1429
r102 15 24 4.59228
r103 14 16 5.58729
r104 14 15 15.7143
r105 11 23 60.1429
r106 7 45 0.09375
r107 6 9 0.0110046
r108 6 42 0.596
r109 4 7 0.0577699
r110 3 9 0.0423445
r111 3 4 0.283
r112 2 9 0.0423445
r113 1 48 0.120236
r114 1 2 0.351
.ends

.subckt PM_LE_X_MUX21A_NI1_N$461 2 4 5 6 7 8 10 11 13 17 22 26 28 31 32 36 37
+ 47 50
c75 50 0 0.0376152f
c76 47 0 0.0320512f
c77 28 0 0.230047f
c78 22 0 0.362911f
c79 17 0 0.508766f
c80 15 0 0.0469f
c81 13 0 0.00541126f
c82 11 0 0.189841f
c83 10 0 0.0965928f
c84 8 0 0.0383291f
c85 7 0 0.0456093f
c86 6 0 0.0305152f
c87 5 0 0.146966f
c88 4 0 0.031648f
c89 2 0 0.0413948f
r90 39 47 453.125
r91 37 39 54.2875
r92 36 39 54.825
r93 34 50 343.75
r94 32 34 41.6667
r95 31 34 41.6667
r96 24 26 40
r97 24 28 6
r98 20 28 4.59228
r99 20 22 41.4286
r100 16 28 4.59228
r101 16 17 86.2857
r102 13 47 0.094375
r103 12 15 0.0423445
r104 11 26 0.0579937
r105 11 12 0.461
r106 10 15 0.0110046
r107 9 10 0.327
r108 7 15 0.0423445
r109 7 8 0.179
r110 5 9 0.0558729
r111 5 6 0.193
r112 4 13 0.0587411
r113 3 8 0.0558729
r114 3 4 0.092
r115 2 6 0.0558729
r116 1 50 0.114044
r117 1 2 0.115
.ends

.subckt PM_LE_X_MUX21A_NI1_N$464 1 2
r2 1 2 82.5
.ends

.subckt PM_LE_X_MUX21A_NI1_N$462 1 2
r0 1 2 82.5
.ends

.subckt PM_LE_X_MUX21A_NI1_N$457 1 2
r2 1 2 104.812
.ends

.subckt PM_LE_X_MUX21A_NI1_N$459 1 2
r1 1 2 106.425
.ends

.subckt PM_LE_X_MUX21A_NI2_N$223 2 4 7 9 11 14 18 20 22 27 32 42 45 48
c87 48 0 0.070386f
c88 45 0 0.0483682f
c89 42 0 0.302425f
c90 20 0 0.230557f
c91 18 0 0.423909f
c92 14 0 0.111602f
c93 11 0 0.384253f
c94 9 0 0.0249185f
c95 7 0 0.0177423f
c96 4 0 0.136087f
c97 2 0 0.129646f
r98 34 45 453.125
r99 32 34 53.75
r100 29 48 343.75
r101 27 29 41.6667
r102 22 42 0.0583115
r103 20 22 40
r104 20 24 6.9375
r105 20 23 8.21799
r106 16 18 58.1429
r107 15 24 4.59228
r108 14 16 5.58729
r109 14 15 15.7143
r110 11 23 60.1429
r111 7 45 0.09375
r112 6 9 0.0110046
r113 6 42 0.596
r114 4 7 0.0577699
r115 3 9 0.0423445
r116 3 4 0.283
r117 2 9 0.0423445
r118 1 48 0.120236
r119 1 2 0.351
.ends

.subckt PM_LE_X_MUX21A_NI2_N$461 2 4 5 6 7 8 10 11 13 15 17 22 26 28 31 32 36
+ 37 47 50
c99 50 0 0.037486f
c100 47 0 0.0555631f
c101 28 0 0.230712f
c102 22 0 0.375271f
c103 17 0 0.509271f
c104 15 0 0.0322654f
c105 13 0 0.00541126f
c106 11 0 0.161475f
c107 10 0 0.103455f
c108 8 0 0.0406565f
c109 7 0 0.0338348f
c110 6 0 0.0393471f
c111 5 0 0.129107f
c112 4 0 0.0408537f
c113 2 0 0.0520084f
r114 39 47 453.125
r115 37 39 54.2875
r116 36 39 54.825
r117 34 50 343.75
r118 32 34 41.6667
r119 31 34 41.6667
r120 24 26 40
r121 24 28 6
r122 20 28 4.59228
r123 20 22 41.4286
r124 16 28 4.59228
r125 16 17 86.2857
r126 13 47 0.094375
r127 12 15 0.0423445
r128 11 26 0.0579937
r129 11 12 0.461
r130 10 15 0.0110046
r131 9 10 0.327
r132 7 15 0.0423445
r133 7 8 0.179
r134 5 9 0.0558729
r135 5 6 0.193
r136 4 13 0.0587411
r137 3 8 0.0558729
r138 3 4 0.092
r139 2 6 0.0558729
r140 1 50 0.114044
r141 1 2 0.115
.ends

.subckt PM_LE_X_MUX21A_NI2_N$464 1 2
r1 1 2 82.5
.ends

.subckt PM_LE_X_MUX21A_NI2_N$462 1 2
r1 1 2 82.5
.ends

.subckt PM_LE_X_MUX21A_NI2_N$457 1 2
r0 1 2 104.812
.ends

.subckt PM_LE_X_MUX21A_NI2_N$459 1 2
r1 1 2 106.425
.ends

.subckt PM_LE_X_MUX21A_NI3_N$223 2 4 7 9 11 14 18 20 22 27 32 34 42 45 48
c81 48 0 0.0708243f
c82 45 0 0.0530218f
c83 42 0 0.277726f
c84 20 0 0.233081f
c85 18 0 0.432242f
c86 14 0 0.111602f
c87 11 0 0.388898f
c88 9 0 0.0249185f
c89 7 0 0.0176562f
c90 4 0 0.136705f
c91 2 0 0.129662f
r92 34 45 453.125
r93 32 34 53.75
r94 29 48 343.75
r95 27 29 41.6667
r96 22 42 0.0583115
r97 20 22 40
r98 20 24 6.9375
r99 20 23 8.21799
r100 16 18 58.1429
r101 15 24 4.59228
r102 14 16 5.58729
r103 14 15 15.7143
r104 11 23 60.1429
r105 7 45 0.09375
r106 6 9 0.0110046
r107 6 42 0.596
r108 4 7 0.0577699
r109 3 9 0.0423445
r110 3 4 0.283
r111 2 9 0.0423445
r112 1 48 0.120236
r113 1 2 0.351
.ends

.subckt PM_LE_X_MUX21A_NI3_N$461 2 4 5 6 7 8 10 11 13 17 22 26 28 31 32 36 37
+ 47 50
c68 50 0 0.0379808f
c69 47 0 0.0555631f
c70 28 0 0.241784f
c71 22 0 0.367261f
c72 17 0 0.516264f
c73 15 0 0.0469f
c74 13 0 0.00541126f
c75 11 0 0.192192f
c76 10 0 0.096858f
c77 8 0 0.0398581f
c78 7 0 0.0456093f
c79 6 0 0.0311518f
c80 5 0 0.127465f
c81 4 0 0.032404f
c82 2 0 0.0423658f
r83 39 47 453.125
r84 37 39 54.2875
r85 36 39 54.825
r86 34 50 343.75
r87 32 34 41.6667
r88 31 34 41.6667
r89 24 26 40
r90 24 28 6
r91 20 28 4.59228
r92 20 22 41.4286
r93 16 28 4.59228
r94 16 17 86.2857
r95 13 47 0.094375
r96 12 15 0.0423445
r97 11 26 0.0579937
r98 11 12 0.461
r99 10 15 0.0110046
r100 9 10 0.327
r101 7 15 0.0423445
r102 7 8 0.179
r103 5 9 0.0558729
r104 5 6 0.193
r105 4 13 0.0587411
r106 3 8 0.0558729
r107 3 4 0.092
r108 2 6 0.0558729
r109 1 50 0.114044
r110 1 2 0.115
.ends

.subckt PM_LE_X_MUX21A_NI3_N$464 1 2
r1 1 2 82.5
.ends

.subckt PM_LE_X_MUX21A_NI3_N$462 1 2
r1 1 2 82.5
.ends

.subckt PM_LE_X_MUX21A_NI3_N$457 1 2
r0 1 2 104.812
.ends

.subckt PM_LE_X_MUX21A_NI3_N$459 1 2
r0 1 2 106.425
.ends

.subckt PM_LE_N$21 2 6 12 18 29 30 31 36 39 45 46 48 50 52 54 61 64 65
c105 65 0 0.204021f
c106 64 0 0.160519f
c107 61 0 0.03614f
c108 52 0 0.382375f
c109 48 0 0.0838634f
c110 46 0 0.0626841f
c111 45 0 2.33203f
c112 39 0 0.0823333f
c113 30 0 0.0404243f
c114 29 0 0.0344652f
c115 18 0 0.074086f
c116 12 0 0.222218f
c117 6 0 0.540902f
c118 2 0 0.339163f
r119 64 65 0.0695997
r120 59 61 0.0501429
r121 50 52 0.0564744
r122 50 64 16.8
r123 48 54 0.0564744
r124 47 48 0.715
r125 45 47 0.0558729
r126 45 46 6.84583
r127 43 46 0.0558729
r128 43 52 0.875833
r129 37 39 453.125
r130 36 37 53.6425
r131 33 61 343.75
r132 31 33 41.5833
r133 29 39 0.0763158
r134 29 30 0.0723252
r135 27 64 0.0695997
r136 27 30 0.09
r137 25 59 0.0222012
r138 25 65 0.49
r139 18 54 16.8
r140 12 18 40
r141 9 12 6.625
r142 5 9 4.59228
r143 5 6 82.5714
r144 1 9 4.59228
r145 1 2 45.1429
.ends

.subckt PM_LE_B 2 6 10 14 18 25 32 34 36 37 38 41 42 43 45 48 54 57
c138 57 0 0.146976f
c139 54 0 0.0720462f
c140 45 0 0.139031f
c141 43 0 0.0163251f
c142 42 0 0.343617f
c143 38 0 0.00697598f
c144 37 0 0.0231784f
c145 32 0 0.442035f
c146 25 0 0.23112f
c147 18 0 0.17401f
c148 14 0 0.431847f
c149 10 0 0.403439f
c150 6 0 0.506581f
c151 2 0 0.309439f
r152 50 57 0.0533175
r153 48 50 16.8
r154 47 54 0.105634
r155 46 47 16.8
r156 45 48 0.0564744
r157 44 45 0.395
r158 42 44 0.0558729
r159 42 43 1.47167
r160 40 43 0.0558729
r161 40 41 0.3
r162 39 46 0.0282659
r163 38 41 0.0558729
r164 38 39 0.165
r165 36 46 0.027607
r166 36 37 0.656667
r167 32 37 0.0558729
r168 32 34 0.6575
r169 25 57 40
r170 22 25 7.2
r171 18 21 8.32385
r172 18 20 8.32385
r173 18 54 40
r174 13 22 4.59228
r175 13 14 55.7143
r176 9 22 4.59228
r177 9 10 62.8571
r178 6 21 77.1429
r179 2 20 41.4286
.ends

.subckt PM_LE_A 2 6 13 18 26 30 34 38 41 44 45 47 52 55 60 68 70 72 73 75 77 78
+ 79 80 81 83 85 86 87 89 90 92 93 99 105 106 111 114 115 119 124
c230 124 0 0.146087f
c231 119 0 0.11137f
c232 115 0 0.00207189f
c233 114 0 0.0590409f
c234 111 0 0.00429956f
c235 99 0 0.0196754f
c236 93 0 0.0554886f
c237 92 0 0.0227519f
c238 90 0 0.297721f
c239 89 0 0.114484f
c240 87 0 0.0207908f
c241 86 0 0.238503f
c242 80 0 0.0165417f
c243 79 0 0.0597398f
c244 78 0 0.078948f
c245 77 0 0.368222f
c246 75 0 0.0658943f
c247 72 0 0.0595692f
c248 68 0 0.783737f
c249 60 0 0.220198f
c250 55 0 0.347819f
c251 52 0 0.179541f
c252 47 0 0.282644f
c253 44 0 0.344078f
c254 41 0 0.549493f
c255 34 0 0.46984f
c256 30 0 0.513964f
c257 26 0 0.357844f
c258 18 0 0.0508159f
c259 13 0 0.20871f
c260 6 0 0.595818f
c261 2 0 0.262215f
r262 114 115 0.0644286
r263 108 124 0.0347625
r264 106 108 16.8
r265 102 114 0.055094
r266 100 102 16.8
r267 96 119 0.0660264
r268 94 96 16.8
r269 92 113 0.188971
r270 92 93 0.5925
r271 91 111 0.0423445
r272 90 93 0.0558729
r273 90 91 0.94
r274 89 111 0.0110046
r275 88 106 0.0564744
r276 88 89 0.325
r277 86 111 0.0423445
r278 86 87 0.601667
r279 85 105 0.0423445
r280 84 85 0.343333
r281 83 87 0.0558729
r282 82 105 0.0423445
r283 82 83 0.338333
r284 81 100 0.0563494
r285 80 105 0.0110046
r286 80 81 0.255
r287 78 84 0.0558729
r288 78 79 0.694167
r289 76 99 0.0423445
r290 76 77 0.896667
r291 75 99 0.0423445
r292 74 79 0.0558729
r293 74 75 0.1225
r294 73 94 0.0563494
r295 72 99 0.0110046
r296 72 73 0.115
r297 68 77 0.0558729
r298 68 70 1.5325
r299 57 60 5.925
r300 57 124 40
r301 52 55 8.32385
r302 52 54 8.32385
r303 52 115 40
r304 49 119 40
r305 47 49 7.37985
r306 44 60 4.59228
r307 44 45 34.2857
r308 40 60 4.59228
r309 40 41 84.2857
r310 38 55 35.7143
r311 34 54 82.8571
r312 29 47 3.53788
r313 29 30 72.8571
r314 25 47 3.53788
r315 25 26 45.7143
r316 18 113 16.8
r317 10 13 5.5625
r318 10 18 40
r319 5 13 4.59228
r320 5 6 97.7143
r321 1 13 4.59228
r322 1 2 30
.ends

.subckt PM_LE_N$19 2 6 13 18 26 29 30 31 36 39 44 45 46 48 50 54 62 65
c139 65 0 0.133477f
c140 62 0 0.0555361f
c141 48 0 0.0392135f
c142 46 0 0.0356893f
c143 45 0 1.47914f
c144 44 0 0.194978f
c145 39 0 0.0572974f
c146 30 0 0.158734f
c147 29 0 0.0244463f
c148 26 0 0.0996888f
c149 18 0 0.0464444f
c150 13 0 0.20871f
c151 6 0 0.612128f
c152 2 0 0.263448f
r153 60 62 0.0572857
r154 50 53 0.0564744
r155 50 65 16.8
r156 47 54 0.0564744
r157 47 48 0.9075
r158 45 48 0.0558729
r159 45 46 4.7475
r160 44 46 0.0558729
r161 44 53 0.883333
r162 37 39 453.125
r163 36 37 53.6425
r164 33 62 343.75
r165 31 33 41.5833
r166 29 39 0.07
r167 29 30 0.0749833
r168 27 65 0.0695997
r169 27 30 0.36
r170 26 65 0.0695997
r171 25 60 0.0222012
r172 25 26 0.23
r173 18 54 16.8
r174 10 13 5.5625
r175 10 18 40
r176 5 13 4.59228
r177 5 6 97.7143
r178 1 13 4.59228
r179 1 2 30
.ends

.subckt PM_LE_N$17 2 6 12 18 28 29 30 35 36 38 43 44 45 47 52 58 61 62
c70 62 0 0.0734353f
c71 61 0 0.109491f
c72 47 0 0.057513f
c73 45 0 0.024986f
c74 44 0 0.473456f
c75 43 0 0.0156534f
c76 28 0 0.206631f
c77 18 0 0.0757909f
c78 12 0 0.222218f
c79 6 0 0.539164f
c80 2 0 0.335615f
r81 61 62 0.0696936
r82 49 61 16.8
r83 47 52 0.0564744
r84 46 47 0.4675
r85 44 46 0.0558729
r86 44 45 1.79167
r87 43 49 0.0564744
r88 42 45 0.0558729
r89 42 43 0.345
r90 36 38 453.125
r91 35 36 53.75
r92 32 58 343.75
r93 30 32 41.6667
r94 29 38 0.114286
r95 28 29 0.0541558
r96 27 61 0.0696936
r97 27 28 0.43
r98 25 58 0.0583115
r99 25 62 0.16
r100 18 52 16.8
r101 12 18 40
r102 9 12 6.625
r103 5 9 4.59228
r104 5 6 82.5714
r105 1 9 4.59228
r106 1 2 45.1429
.ends

.subckt PM_LE_S1 3 7 9 10 11 12 14 18 25 30 38 42 44 45 46 47 49 53 60 65 74 75
+ 76 78 79 80 82 83 84 86 87 90 91 92 94 95 97 99 102 105
c275 105 0 0.00199588f
c276 97 0 1.07443f
c277 95 0 0.017322f
c278 94 0 0.151175f
c279 92 0 0.012036f
c280 91 0 0.0323935f
c281 90 0 0.0712693f
c282 87 0 0.227292f
c283 86 0 0.111251f
c284 84 0 0.00684425f
c285 83 0 0.276335f
c286 82 0 0.173665f
c287 80 0 0.014237f
c288 79 0 0.0784331f
c289 78 0 0.0949324f
c290 75 0 0.0168364f
c291 74 0 0.0654121f
c292 65 0 0.099713f
c293 60 0 0.229906f
c294 53 0 0.365377f
c295 49 0 0.41483f
c296 47 0 0.0458386f
c297 46 0 0.514593f
c298 45 0 0.0457882f
c299 44 0 0.675795f
c300 42 0 0.58743f
c301 38 0 0.407485f
c302 30 0 0.119366f
c303 25 0 0.229906f
c304 18 0 0.365716f
c305 14 0 0.404567f
c306 12 0 0.0458386f
c307 11 0 0.508725f
c308 10 0 0.0459044f
c309 9 0 0.670695f
c310 7 0 0.606136f
c311 3 0 0.415188f
r312 95 97 2.9975
r313 93 95 0.0558729
r314 93 94 0.9925
r315 91 94 0.0558729
r316 91 92 0.3725
r317 90 92 0.0558729
r318 89 90 0.748333
r319 88 105 0.0423445
r320 87 89 0.0558729
r321 87 88 0.975833
r322 86 102 0.0564744
r323 85 105 0.0110046
r324 85 86 0.455833
r325 83 105 0.0423445
r326 83 84 0.655833
r327 81 84 0.0558729
r328 81 82 1.18833
r329 79 82 0.0558729
r330 79 80 0.768333
r331 78 80 0.0558729
r332 77 78 0.924167
r333 75 77 0.0558729
r334 75 76 0.591667
r335 74 99 0.0564744
r336 73 76 0.0558729
r337 73 74 0.191667
r338 65 102 16.8
r339 57 60 7.1875
r340 57 65 40
r341 52 53 51.4286
r342 48 49 54
r343 46 48 5.58729
r344 46 47 104.143
r345 44 52 5.58729
r346 44 45 143.143
r347 41 47 5.58729
r348 41 42 54
r349 40 60 4.59228
r350 40 42 83.1429
r351 37 60 4.59228
r352 37 38 44.5714
r353 36 45 5.58729
r354 36 38 51.4286
r355 30 99 16.8
r356 22 25 7.1875
r357 22 30 40
r358 17 18 51.4286
r359 13 14 54
r360 11 13 5.58729
r361 11 12 104.143
r362 9 17 5.58729
r363 9 10 143.143
r364 6 12 5.58729
r365 6 7 54
r366 5 25 4.59228
r367 5 7 83.1429
r368 2 25 4.59228
r369 2 3 44.5714
r370 1 10 5.58729
r371 1 3 51.4286
.ends

.subckt PM_LE_S2 3 7 9 10 11 12 14 18 25 30 38 39 41 43
c82 41 0 0.631463f
c83 39 0 0.0392504f
c84 38 0 0.127782f
c85 30 0 0.0999783f
c86 25 0 0.229906f
c87 18 0 0.359959f
c88 14 0 0.426322f
c89 12 0 0.0460852f
c90 11 0 0.511333f
c91 10 0 0.0465478f
c92 9 0 0.670315f
c93 7 0 0.59438f
c94 3 0 0.406342f
r95 39 41 2.20583
r96 38 43 0.0564744
r97 37 39 0.0558729
r98 37 38 0.4875
r99 30 43 16.8
r100 22 25 7.1875
r101 22 30 40
r102 17 18 51.4286
r103 13 14 54
r104 11 13 5.58729
r105 11 12 104.143
r106 9 17 5.58729
r107 9 10 143.143
r108 6 12 5.58729
r109 6 7 54
r110 5 25 4.59228
r111 5 7 83.1429
r112 2 25 4.59228
r113 2 3 44.5714
r114 1 10 5.58729
r115 1 3 51.4286
.ends

.subckt PM_LE_N$10 4 5 13 18 27 29 33 36 41 46 50 52 56 65 66 68 69 72 73 74 76
+ 77 78 80
c152 80 0 0.0782944f
c153 77 0 0.334303f
c154 76 0 0.0212523f
c155 74 0 0.00177177f
c156 73 0 0.0146259f
c157 72 0 0.0439175f
c158 70 0 0.066616f
c159 69 0 0.164533f
c160 68 0 0.0679774f
c161 65 0 0.126109f
c162 52 0 0.20871f
c163 50 0 0.046287f
c164 46 0 0.596565f
c165 41 0 0.26276f
c166 36 0 0.128615f
c167 33 0 0.142133f
c168 29 0 0.106118f
c169 27 0 0.308424f
c170 5 0 0.0435947f
c171 4 0 0.164659f
r172 80 86 0.484167
r173 77 80 0.0558729
r174 77 78 1.88833
r175 76 78 0.0558729
r176 75 76 0.76
r177 73 75 0.0558729
r178 73 74 0.451667
r179 71 74 0.0558729
r180 71 72 0.5075
r181 69 72 0.0558729
r182 69 70 0.3925
r183 68 70 0.0558729
r184 67 68 0.144167
r185 66 81 0.0564744
r186 65 67 0.0558729
r187 65 66 0.108333
r188 56 86 0.0564744
r189 50 56 16.8
r190 48 50 40
r191 48 52 5.5625
r192 44 52 4.59228
r193 44 46 97.7143
r194 40 52 4.59228
r195 40 41 30
r196 27 32 0.0707534
r197 27 29 0.0707534
r198 27 81 16.8
r199 20 33 453.125
r200 18 20 53.75
r201 15 36 343.75
r202 13 15 41.6667
r203 5 33 0.09375
r204 4 5 0.0577699
r205 4 32 0.358
r206 1 36 0.120236
r207 1 29 0.196
.ends

.subckt PM_LE_N$9 4 5 13 18 20 27 29 33 36 41 46 50 52 56 65 66 68 69 70 72 73
+ 74 81
c91 81 0 0.0554621f
c92 74 0 0.00132694f
c93 73 0 0.0142325f
c94 72 0 0.0425968f
c95 70 0 0.0398265f
c96 69 0 0.109817f
c97 68 0 0.0785012f
c98 65 0 0.124698f
c99 52 0 0.0779772f
c100 50 0 0.222218f
c101 46 0 0.550296f
c102 41 0 0.335261f
c103 36 0 0.132976f
c104 33 0 0.14538f
c105 29 0 0.106285f
c106 27 0 0.308476f
c107 5 0 0.0435947f
c108 4 0 0.16304f
r109 75 81 0.210833
r110 73 75 0.0558729
r111 73 74 0.984167
r112 71 74 0.0558729
r113 71 72 0.5075
r114 69 72 0.0558729
r115 69 70 0.384167
r116 68 70 0.0558729
r117 67 68 0.1675
r118 66 77 0.0564744
r119 65 67 0.0558729
r120 65 66 0.106667
r121 56 81 0.0564744
r122 52 56 16.8
r123 50 52 40
r124 48 50 6.625
r125 44 48 4.59228
r126 44 46 82.5714
r127 40 48 4.59228
r128 40 41 45.1429
r129 27 32 0.0707534
r130 27 29 0.0707534
r131 27 77 16.8
r132 20 33 453.125
r133 18 20 53.75
r134 15 36 343.75
r135 13 15 41.6667
r136 5 33 0.09375
r137 4 5 0.0577699
r138 4 32 0.358
r139 1 36 0.120236
r140 1 29 0.196
.ends

.subckt PM_LE_LE 4 5 13 18 27 29 33 36 43
c11 43 0 0.377284f
c12 36 0 0.129071f
c13 33 0 0.160986f
c14 29 0 0.107455f
c15 27 0 0.315592f
c16 5 0 0.0435947f
c17 4 0 0.191747f
r18 41 45 0.0564744
r19 41 43 0.3075
r20 27 32 0.0707534
r21 27 29 0.0707534
r22 27 45 16.8
r23 20 33 453.125
r24 18 20 53.75
r25 15 36 343.75
r26 13 15 41.6667
r27 5 33 0.09375
r28 4 5 0.0577699
r29 4 32 0.358
r30 1 36 0.120236
r31 1 29 0.196
.ends

.subckt PM_LE_X_OR02A1_N$429 1 2 3
r8 2 3 53.8575
r9 1 3 53.6425
.ends

.subckt PM_LE_X_OR02A1_N$431 1 2 4 5 8 10 12 16 19 22 24 25 29 32 44
c72 22 0 0.349817f
c73 19 0 0.181336f
c74 12 0 0.462452f
c75 9 0 0.0234018f
c76 8 0 0.052383f
c77 5 0 0.0753388f
c78 4 0 0.160561f
c79 1 0 0.0546064f
r80 30 32 453.125
r81 29 30 53.8575
r82 27 44 343.75
r83 25 27 41.75
r84 24 27 41.5833
r85 19 22 8.32385
r86 19 21 8.32385
r87 19 37 40
r88 16 22 40
r89 12 21 78.5714
r90 10 32 0.121429
r91 8 10 0.0541558
r92 7 8 0.16
r93 6 9 0.0423445
r94 5 7 0.0558729
r95 5 6 0.15
r96 4 9 0.0110046
r97 3 44 0.0583115
r98 3 4 0.5
r99 2 37 0.0581687
r100 1 9 0.0423445
r101 1 2 0.24
.ends

.subckt PM_LE_X_AND02A1_N$649 1 2 3
r11 2 3 41.75
r12 1 3 41.5833
.ends

.subckt PM_LE_X_AND02A1_N$647 1 2 5 8 9 10 11 13 16 20 22 25 27 30 31 34 45
c85 22 0 0.268438f
c86 20 0 0.167702f
c87 16 0 0.559895f
c88 11 0 0.0234444f
c89 10 0 0.179814f
c90 8 0 0.0483588f
c91 5 0 0.0713644f
c92 1 0 0.0523768f
r93 32 34 453.125
r94 31 32 53.8575
r95 30 32 53.6425
r96 27 45 343.75
r97 25 27 45.9167
r98 20 23 8.21799
r99 20 22 8.21799
r100 20 38 40
r101 16 23 90
r102 13 22 28.5714
r103 9 34 0.121429
r104 9 10 0.055541
r105 7 45 0.0583115
r106 7 8 0.16
r107 6 11 0.0423445
r108 5 8 0.0558729
r109 5 6 0.17
r110 3 11 0.0110046
r111 3 10 0.51
r112 2 38 0.0581687
r113 1 11 0.0423445
r114 1 2 0.25
.ends

.subckt PM_LE_VDD 1 3 4 5 6 7 8 9 15 58 63 68 70 73 94 97 100 103 109 127 129
+ 130 132 133 134 135 141 184 189 194 196 199 220 223 226 229 235 253 255 256 258
+ 259 260 261 267 305 310 315 320 325 346 349 352 355 361 400 402 403 406 411 412
+ 415 416 419 420 421 425 426 431 433 435 438 440 489 490 494 495 499 501 504 527
+ 529 531 533
c215 533 0 0.0458438f
c216 443 0 0.0942601f
c217 441 0 0.0890475f
c218 440 0 0.438429f
c219 439 0 0.0869625f
c220 438 0 1.53412f
c221 436 0 0.0942601f
c222 435 0 0.761126f
c223 431 0 1.61056f
c224 426 0 0.38413f
c225 425 0 0.0139247f
c226 421 0 0.625085f
c227 420 0 0.38413f
c228 416 0 0.341952f
c229 412 0 0.365002f
c230 406 0 0.211055f
c231 405 0 0.328888f
c232 403 0 0.191448f
c233 402 0 0.323767f
c234 400 0 0.191448f
c235 361 0 1.0599f
c236 355 0 0.0313628f
c237 352 0 0.0372291f
c238 349 0 0.0246194f
c239 346 0 0.119673f
c240 268 0 0.0894645f
c241 267 0 0.844647f
c242 261 0 0.690745f
c243 260 0 0.224287f
c244 259 0 0.0266157f
c245 258 0 0.2244f
c246 257 0 0.0341165f
c247 256 0 0.203153f
c248 255 0 0.00886439f
c249 253 0 0.0472478f
c250 235 0 1.0599f
c251 229 0 0.030722f
c252 226 0 0.03576f
c253 223 0 0.0247625f
c254 220 0 0.135556f
c255 142 0 0.0894645f
c256 141 0 0.840355f
c257 135 0 0.611201f
c258 134 0 0.224287f
c259 133 0 0.0266157f
c260 132 0 0.2244f
c261 131 0 0.0341165f
c262 130 0 0.194555f
c263 129 0 0.00886439f
c264 127 0 0.0401445f
c265 109 0 1.00123f
c266 103 0 0.0310123f
c267 100 0 0.0355621f
c268 97 0 0.0286206f
c269 94 0 0.123508f
c270 16 0 0.0894645f
c271 15 0 0.845121f
c272 9 0 0.617915f
c273 8 0 0.21426f
c274 7 0 0.018509f
c275 6 0 0.214293f
c276 5 0 0.0221649f
c277 4 0 0.184172f
c278 3 0 0.00843198f
c279 1 0 0.0394943f
r280 506 533 453.125
r281 504 506 53.6425
r282 501 531 453.125
r283 499 501 53.8575
r284 497 529 453.125
r285 495 497 53.8575
r286 494 497 53.6425
r287 492 527 453.125
r288 490 492 53.8575
r289 489 492 53.6425
r290 485 556 0.1917
r291 473 479 0.09
r292 461 467 0.18675
r293 455 461 0.09
r294 442 485 0.02255
r295 442 443 0.0120039
r296 440 479 0.0112
r297 440 441 0.0120039
r298 438 467 0.0562
r299 438 439 0.0120039
r300 437 473 0.0088
r301 437 439 0.0120039
r302 435 449 0.04745
r303 435 436 0.0120039
r304 434 455 0.01755
r305 434 436 0.0120039
r306 431 444 0.103503
r307 431 433 0.0527157
r308 426 443 0.0539771
r309 425 533 0.0583115
r310 425 426 0.6
r311 422 441 0.0120039
r312 421 443 0.0120039
r313 421 422 0.14025
r314 420 441 0.0539771
r315 419 531 0.0583115
r316 419 420 0.59
r317 416 439 0.0539771
r318 415 529 0.0583115
r319 415 416 0.59
r320 412 436 0.0539771
r321 411 527 0.0583115
r322 411 412 0.59
r323 408 444 0.0345
r324 406 430 0.0748438
r325 403 428 0.0748438
r326 400 556 0.0748438
r327 378 408 0.0125
r328 361 374 0.0125
r329 327 355 453.125
r330 325 327 53.75
r331 322 352 453.125
r332 320 322 53.75
r333 317 349 453.125
r334 315 317 53.75
r335 312 346 453.125
r336 310 312 53.75
r337 305 449 343.75
r338 305 455 343.75
r339 305 461 343.75
r340 305 467 343.75
r341 305 473 343.75
r342 305 479 343.75
r343 305 485 343.75
r344 305 444 343.75
r345 300 378 0.043
r346 300 374 0.02325
r347 300 305 343.75
r348 294 361 0.05425
r349 294 305 343.75
r350 288 294 0.09
r351 288 305 343.75
r352 282 288 0.09
r353 282 305 343.75
r354 276 305 343.75
r355 271 355 0.05625
r356 269 352 0.0444444
r357 267 276 0.05325
r358 267 268 0.0120039
r359 266 282 0.01175
r360 266 268 0.0120039
r361 264 349 0.05625
r362 262 346 0.05625
r363 261 430 0.0125
r364 261 276 0.05625
r365 260 378 0.0748438
r366 259 271 0.0585627
r367 259 260 0.415
r368 258 374 0.0748438
r369 257 269 0.0620613
r370 257 258 0.415
r371 256 268 0.0539771
r372 255 264 0.0571114
r373 255 256 0.415
r374 253 262 0.0576286
r375 253 406 0.415
r376 252 405 0.0125
r377 235 248 0.0125
r378 201 229 453.125
r379 199 201 53.75
r380 196 226 453.125
r381 194 196 53.75
r382 191 223 453.125
r383 189 191 53.75
r384 186 220 453.125
r385 184 186 53.75
r386 180 430 0.17775
r387 180 405 0.0345
r388 180 305 343.75
r389 174 252 0.043
r390 174 248 0.02325
r391 174 305 343.75
r392 168 235 0.05425
r393 168 305 343.75
r394 162 168 0.09
r395 162 305 343.75
r396 156 162 0.09
r397 156 305 343.75
r398 150 305 343.75
r399 145 229 0.05625
r400 143 226 0.0444444
r401 141 150 0.05325
r402 141 142 0.0120039
r403 140 156 0.01175
r404 140 142 0.0120039
r405 138 223 0.05625
r406 136 220 0.05625
r407 135 428 0.0125
r408 135 150 0.05625
r409 134 252 0.0748438
r410 133 145 0.0585627
r411 133 134 0.415
r412 132 248 0.0748438
r413 131 143 0.0620613
r414 131 132 0.415
r415 130 142 0.0539771
r416 129 138 0.0571114
r417 129 130 0.415
r418 127 136 0.0576286
r419 127 403 0.415
r420 126 402 0.0125
r421 109 122 0.0125
r422 75 103 453.125
r423 73 75 53.75
r424 70 100 453.125
r425 68 70 53.75
r426 65 97 453.125
r427 63 65 53.75
r428 60 94 453.125
r429 58 60 53.75
r430 54 428 0.17775
r431 54 402 0.0345
r432 54 305 343.75
r433 48 126 0.043
r434 48 122 0.02325
r435 48 305 343.75
r436 42 109 0.05425
r437 42 305 343.75
r438 36 42 0.09
r439 36 305 343.75
r440 30 36 0.09
r441 30 305 343.75
r442 24 305 343.75
r443 19 103 0.05625
r444 17 100 0.0444444
r445 15 24 0.05325
r446 15 16 0.0120039
r447 14 30 0.01175
r448 14 16 0.0120039
r449 12 97 0.05625
r450 10 94 0.05625
r451 9 556 0.0125
r452 9 24 0.05625
r453 8 126 0.0748438
r454 7 19 0.0585627
r455 7 8 0.415
r456 6 122 0.0748438
r457 5 17 0.0620613
r458 5 6 0.415
r459 4 16 0.0539771
r460 3 12 0.0571114
r461 3 4 0.415
r462 1 10 0.0576286
r463 1 400 0.415
.ends

.subckt PM_LE_GND 4 6 8 11 16 21 26 77 80 94 96 99 101 106 108 110 113 118 123
+ 125 128 179 182 196 198 201 203 208 210 212 215 220 225 227 230 266 281 284 298
+ 300 303 305 327 335 337 339 341 346 348 351 354 357 360 365 366 370 372 375 376
+ 380 453 456 460 463
c212 463 0 0.0457901f
c213 361 0 0.0942601f
c214 360 0 1.20596f
c215 358 0 0.0942601f
c216 357 0 0.933897f
c217 355 0 0.09009f
c218 354 0 0.447637f
c219 352 0 0.088005f
c220 351 0 0.784725f
c221 348 0 0.576938f
c222 346 0 0.936584f
c223 341 0 0.367878f
c224 339 0 0.366413f
c225 337 0 0.376663f
c226 335 0 0.33322f
c227 330 0 0.341427f
c228 327 0 0.334851f
c229 305 0 0.0847487f
c230 303 0 0.0583046f
c231 300 0 0.0205817f
c232 298 0 0.10641f
c233 284 0 1.02416f
c234 281 0 1.76863f
c235 243 0 0.0767458f
c236 212 0 0.310036f
c237 210 0 0.295618f
c238 208 0 0.321214f
c239 203 0 0.0683408f
c240 201 0 0.0580142f
c241 198 0 0.0204235f
c242 196 0 0.110372f
c243 182 0 1.02341f
c244 179 0 1.76866f
c245 141 0 0.0767458f
c246 110 0 0.322231f
c247 108 0 0.289808f
c248 106 0 0.318423f
c249 101 0 0.0712239f
c250 99 0 0.0589941f
c251 96 0 0.0205927f
c252 94 0 0.106143f
c253 80 0 1.02341f
c254 77 0 1.78334f
c255 39 0 0.0767458f
c256 8 0 0.314241f
c257 6 0 0.303811f
c258 4 0 0.318262f
r259 423 452 0.1852
r260 411 417 0.09
r261 393 399 0.09
r262 382 463 343.75
r263 380 382 41.5833
r264 378 460 343.75
r265 376 378 41.75
r266 375 378 41.5833
r267 372 456 343.75
r268 370 372 41.75
r269 368 453 343.75
r270 366 368 41.75
r271 365 368 41.5833
r272 360 417 0.1657
r273 360 361 0.0120039
r274 359 423 0.02755
r275 359 361 0.0120039
r276 357 405 0.04295
r277 357 358 0.0120039
r278 356 411 0.02205
r279 356 358 0.0120039
r280 354 399 0.01245
r281 354 355 0.0120039
r282 353 405 0.17005
r283 353 355 0.0120039
r284 351 387 0.05495
r285 351 352 0.0120039
r286 350 393 0.01005
r287 350 352 0.0120039
r288 346 362 0.117903
r289 346 348 0.0481481
r290 341 463 0.0583115
r291 340 361 0.0539771
r292 340 341 0.59
r293 339 460 0.0583115
r294 338 358 0.0539771
r295 338 339 0.59
r296 337 456 0.0583115
r297 336 355 0.0539771
r298 336 337 0.6
r299 335 453 0.0583115
r300 334 352 0.0539771
r301 334 335 0.6
r302 333 362 0.0155
r303 331 345 0.0748438
r304 328 343 0.0748438
r305 325 452 0.0748438
r306 297 333 0.0125
r307 284 294 0.0125
r308 266 387 906.25
r309 266 393 906.25
r310 266 399 906.25
r311 266 405 906.25
r312 266 411 906.25
r313 266 417 906.25
r314 266 423 906.25
r315 266 362 906.25
r316 261 297 0.062
r317 261 294 0.007
r318 261 266 906.25
r319 255 284 0.0705
r320 255 266 906.25
r321 249 255 0.09
r322 249 285 0.0865
r323 249 266 906.25
r324 243 281 0.0120039
r325 243 285 0.0120039
r326 243 266 906.25
r327 237 281 0.0685
r328 237 266 906.25
r329 232 305 343.75
r330 230 232 41.6667
r331 227 303 343.75
r332 225 227 42.5
r333 222 300 343.75
r334 220 222 42.5
r335 217 298 343.75
r336 215 217 41.6667
r337 213 345 0.0125
r338 213 237 0.03975
r339 212 305 0.0577358
r340 211 297 0.0748438
r341 211 212 0.611
r342 210 303 0.0584886
r343 209 294 0.0748438
r344 209 210 0.611
r345 208 300 0.0577358
r346 207 243 0.0539771
r347 207 208 0.611
r348 206 298 0.0577358
r349 206 331 0.611
r350 195 330 0.0125
r351 182 192 0.0125
r352 165 345 0.19425
r353 165 330 0.0155
r354 165 266 906.25
r355 159 195 0.062
r356 159 192 0.007
r357 159 266 906.25
r358 153 182 0.0705
r359 153 266 906.25
r360 147 153 0.09
r361 147 183 0.0865
r362 147 266 906.25
r363 141 179 0.0120039
r364 141 183 0.0120039
r365 141 266 906.25
r366 135 179 0.0685
r367 135 266 906.25
r368 130 203 343.75
r369 128 130 41.6667
r370 125 201 343.75
r371 123 125 42.5
r372 120 198 343.75
r373 118 120 42.5
r374 115 196 343.75
r375 113 115 41.6667
r376 111 343 0.0125
r377 111 135 0.03975
r378 110 203 0.0577358
r379 109 195 0.0748438
r380 109 110 0.611
r381 108 201 0.0584886
r382 107 192 0.0748438
r383 107 108 0.611
r384 106 198 0.0577358
r385 105 141 0.0539771
r386 105 106 0.611
r387 104 196 0.0577358
r388 104 328 0.611
r389 93 327 0.0125
r390 80 90 0.0125
r391 63 343 0.19425
r392 63 327 0.0155
r393 63 266 906.25
r394 57 93 0.062
r395 57 90 0.007
r396 57 266 906.25
r397 51 80 0.0705
r398 51 266 906.25
r399 45 51 0.09
r400 45 81 0.0865
r401 45 266 906.25
r402 39 77 0.0120039
r403 39 81 0.0120039
r404 39 266 906.25
r405 33 77 0.0685
r406 33 266 906.25
r407 28 101 343.75
r408 26 28 41.6667
r409 23 99 343.75
r410 21 23 42.5
r411 18 96 343.75
r412 16 18 42.5
r413 13 94 343.75
r414 11 13 41.6667
r415 9 452 0.0125
r416 9 33 0.03975
r417 8 101 0.0577358
r418 7 93 0.0748438
r419 7 8 0.611
r420 6 99 0.0584886
r421 5 90 0.0748438
r422 5 6 0.611
r423 4 96 0.0577358
r424 3 39 0.0539771
r425 3 4 0.611
r426 2 94 0.0577358
r427 2 325 0.611
.ends

